 DALES 4.4 git: 423e44
 ./namoptions.001                                                                                                                                                                                                                                                
&RUN
 IEXPNR=1          ,
 LWARMSTART=F,
 STARTFILE="initd001h00mx000y000.001                          ",
 LTOTRUNTIME=F,
 RUNTIME=  100.00000000000000     ,
 DTMAX=  1.0000000000000000     ,
 WCTIME=  8640000.0000000000     ,
 DTAV_GLOB=  60.000000000000000     ,
 TIMEAV_GLOB=  3600.0000000000000     ,
 TRESTART= -1.0000000000000000     ,
 IRANDOM=43         ,
 RANDTHL= 0.10000000000000001     ,
 RANDQT=  2.5000000000000001E-005,
 KRAND=2147483647 ,
 NSV=0          ,
 COURANT= -1.0000000000000000     ,
 PECLET= 0.14999999999999999     ,
 LADAPTIVE=F,
 AUTHOR="                                                                                ",
 KRANDUMIN=1          ,
 KRANDUMAX=0          ,
 RANDU= 0.50000000000000000     ,
 NPROCX=1          ,
 NPROCY=0          ,
 LOUTDIRS=F,
 /
&DOMAIN
 ITOT=512        ,
 JTOT=512        ,
 KMAX=80         ,
 XSIZE=  51200.000000000000     ,
 YSIZE=  51200.000000000000     ,
 XLAT=  15.000000000000000     ,
 XLON=  0.0000000000000000     ,
 XYEAR=0          ,
 XDAY=  0.0000000000000000     ,
 XTIME=  0.0000000000000000     ,
 KSP=-1         ,
 /
&PHYSICS
 Z0=  2.0000000000000001E-004,
 USTIN= -1.0000000000000000     ,
 WTSURF= -1.0000000000000000E+020,
 WQSURF= -1.0000000000000000E+020,
 WSVSURF= 100*0.0000000000000000       ,
 PS=  101500.00000000000     ,
 THLS=  299.10000000000002     ,
 LMOIST=T,
 ISURF=-1         ,
 CHI_HALF= 0.50000000000000000     ,
 LCORIOL=T,
 LPRESSGRAD=T,
 IGRW_DAMP=2          ,
 GEODAMPTIME=  7200.0000000000000     ,
 LMOMSUBS=F,
 LTIMEDEP=F,
 LTIMEDEPUV=F,
 LTIMEDEPSV=F,
 NTIMEDEP=100        ,
 IRAD=-1         ,
 TIMERAD=  0.0000000000000000     ,
 IRADIATION=0          ,
 RAD_LS=T,
 RAD_LONGW=T,
 RAD_SHORTW=T,
 RAD_SMOKE=F,
 USEMCICA=T,
 RKA=  130.00000000000000     ,
 DLWTOP=  74.000000000000000     ,
 DLWBOT=  0.0000000000000000     ,
 SW0=  1368.2200000000000     ,
 GC= 0.84999999999999998     ,
 REFF=  1.0000000000000001E-005,
 ISVSMOKE=1          ,
 LFORCE_USER=F,
 LCLOUDSHADING=F,
 LRIGIDLID=F,
 UNUDGE=  1.0000000000000000     ,
 LFAST_THERMO=T,
 /
&DYNAMICS
 LLSADV=F,
 LQLNR=F,
 LAMBDA_CRIT=  100.00000000000000     ,
 CU= -8.0000000000000000     ,
 CV=  0.0000000000000000     ,
 IBAS_PRF=3          ,
 IADV_MOM=2          ,
 IADV_TKE=2          ,
 IADV_THL=2          ,
 IADV_QT=2          ,
 IADV_SV=2          , 99*-1         ,
 LNOCLOUDS=F,
 /
&SOLVER
 SOLVER_ID=100        ,
 MAXITER=10000      ,
 TOLERANCE=  1.0000000000000000E-008,
 N_PRE=1          ,
 N_POST=1          ,
 PRECOND=1          ,
 /
 MPI mesh nprocx, nprocy:            1           1
 lev    dz     zf      zh       dzh    delta
  81     40.00   3220.00   3200.00     40.00     73.68
  80     40.00   3180.00   3160.00     40.00     73.68
  79     40.00   3140.00   3120.00     40.00     73.68
  78     40.00   3100.00   3080.00     40.00     73.68
  77     40.00   3060.00   3040.00     40.00     73.68
  76     40.00   3020.00   3000.00     40.00     73.68
  75     40.00   2980.00   2960.00     40.00     73.68
  74     40.00   2940.00   2920.00     40.00     73.68
  73     40.00   2900.00   2880.00     40.00     73.68
  72     40.00   2860.00   2840.00     40.00     73.68
  71     40.00   2820.00   2800.00     40.00     73.68
  70     40.00   2780.00   2760.00     40.00     73.68
  69     40.00   2740.00   2720.00     40.00     73.68
  68     40.00   2700.00   2680.00     40.00     73.68
  67     40.00   2660.00   2640.00     40.00     73.68
  66     40.00   2620.00   2600.00     40.00     73.68
  65     40.00   2580.00   2560.00     40.00     73.68
  64     40.00   2540.00   2520.00     40.00     73.68
  63     40.00   2500.00   2480.00     40.00     73.68
  62     40.00   2460.00   2440.00     40.00     73.68
  61     40.00   2420.00   2400.00     40.00     73.68
  60     40.00   2380.00   2360.00     40.00     73.68
  59     40.00   2340.00   2320.00     40.00     73.68
  58     40.00   2300.00   2280.00     40.00     73.68
  57     40.00   2260.00   2240.00     40.00     73.68
  56     40.00   2220.00   2200.00     40.00     73.68
  55     40.00   2180.00   2160.00     40.00     73.68
  54     40.00   2140.00   2120.00     40.00     73.68
  53     40.00   2100.00   2080.00     40.00     73.68
  52     40.00   2060.00   2040.00     40.00     73.68
  51     40.00   2020.00   2000.00     40.00     73.68
  50     40.00   1980.00   1960.00     40.00     73.68
  49     40.00   1940.00   1920.00     40.00     73.68
  48     40.00   1900.00   1880.00     40.00     73.68
  47     40.00   1860.00   1840.00     40.00     73.68
  46     40.00   1820.00   1800.00     40.00     73.68
  45     40.00   1780.00   1760.00     40.00     73.68
  44     40.00   1740.00   1720.00     40.00     73.68
  43     40.00   1700.00   1680.00     40.00     73.68
  42     40.00   1660.00   1640.00     40.00     73.68
  41     40.00   1620.00   1600.00     40.00     73.68
  40     40.00   1580.00   1560.00     40.00     73.68
  39     40.00   1540.00   1520.00     40.00     73.68
  38     40.00   1500.00   1480.00     40.00     73.68
  37     40.00   1460.00   1440.00     40.00     73.68
  36     40.00   1420.00   1400.00     40.00     73.68
  35     40.00   1380.00   1360.00     40.00     73.68
  34     40.00   1340.00   1320.00     40.00     73.68
  33     40.00   1300.00   1280.00     40.00     73.68
  32     40.00   1260.00   1240.00     40.00     73.68
  31     40.00   1220.00   1200.00     40.00     73.68
  30     40.00   1180.00   1160.00     40.00     73.68
  29     40.00   1140.00   1120.00     40.00     73.68
  28     40.00   1100.00   1080.00     40.00     73.68
  27     40.00   1060.00   1040.00     40.00     73.68
  26     40.00   1020.00   1000.00     40.00     73.68
  25     40.00    980.00    960.00     40.00     73.68
  24     40.00    940.00    920.00     40.00     73.68
  23     40.00    900.00    880.00     40.00     73.68
  22     40.00    860.00    840.00     40.00     73.68
  21     40.00    820.00    800.00     40.00     73.68
  20     40.00    780.00    760.00     40.00     73.68
  19     40.00    740.00    720.00     40.00     73.68
  18     40.00    700.00    680.00     40.00     73.68
  17     40.00    660.00    640.00     40.00     73.68
  16     40.00    620.00    600.00     40.00     73.68
  15     40.00    580.00    560.00     40.00     73.68
  14     40.00    540.00    520.00     40.00     73.68
  13     40.00    500.00    480.00     40.00     73.68
  12     40.00    460.00    440.00     40.00     73.68
  11     40.00    420.00    400.00     40.00     73.68
  10     40.00    380.00    360.00     40.00     73.68
   9     40.00    340.00    320.00     40.00     73.68
   8     40.00    300.00    280.00     40.00     73.68
   7     40.00    260.00    240.00     40.00     73.68
   6     40.00    220.00    200.00     40.00     73.68
   5     40.00    180.00    160.00     40.00     73.68
   4     40.00    140.00    120.00     40.00     73.68
   3     40.00    100.00     80.00     40.00     73.68
   2     40.00     60.00     40.00     40.00     73.68
   1     40.00     20.00      0.00     40.00     73.68
&TIMER
 LTIMER=F,
 LTIMER_PRINT=T,
 LTIMER_WRITE=F,
 /
