 DALES 4.4 git: df78a7-dirty
 namoptions.001                                                                                                                                                                                                                                                  
&RUN
 IEXPNR=1          ,
 LWARMSTART=F,
 STARTFILE="initd001h00mx000y000.001                          ",
 LTOTRUNTIME=F,
 RUNTIME=  28800.000000000000     ,
 DTMAX=  20.000000000000000     ,
 WCTIME=  8640000.0000000000     ,
 DTAV_GLOB=  60.000000000000000     ,
 TIMEAV_GLOB=  3600.0000000000000     ,
 TRESTART= -1.0000000000000000     ,
 IRANDOM=43         ,
 RANDTHL= 0.10000000000000001     ,
 RANDQT=  2.5000000000000001E-005,
 KRAND=2147483647 ,
 NSV=0          ,
 COURANT= -1.0000000000000000     ,
 PECLET= 0.14999999999999999     ,
 LADAPTIVE=T,
 AUTHOR="                                                                                ",
 KRANDUMIN=1          ,
 KRANDUMAX=0          ,
 RANDU= 0.50000000000000000     ,
 NPROCX=1          ,
 NPROCY=0          ,
 LOUTDIRS=F,
 /
&DOMAIN
 ITOT=128        ,
 JTOT=128        ,
 KMAX=80         ,
 XSIZE=  12800.000000000000     ,
 YSIZE=  12800.000000000000     ,
 XLAT=  15.000000000000000     ,
 XLON=  0.0000000000000000     ,
 XYEAR=0          ,
 XDAY=  0.0000000000000000     ,
 XTIME=  0.0000000000000000     ,
 KSP=-1         ,
 /
&PHYSICS
 Z0=  2.0000000000000001E-004,
 USTIN= -1.0000000000000000     ,
 WTSURF= -1.0000000000000000E+020,
 WQSURF= -1.0000000000000000E+020,
 WSVSURF= 100*0.0000000000000000       ,
 PS=  101500.00000000000     ,
 THLS=  299.10000000000002     ,
 LMOIST=T,
 ISURF=-1         ,
 CHI_HALF= 0.50000000000000000     ,
 LCORIOL=T,
 LPRESSGRAD=T,
 IGRW_DAMP=2          ,
 GEODAMPTIME=  7200.0000000000000     ,
 LMOMSUBS=F,
 LTIMEDEP=F,
 LTIMEDEPUV=F,
 LTIMEDEPSV=F,
 NTIMEDEP=100        ,
 IRAD=-1         ,
 TIMERAD=  0.0000000000000000     ,
 IRADIATION=0          ,
 RAD_LS=T,
 RAD_LONGW=T,
 RAD_SHORTW=T,
 RAD_SMOKE=F,
 USEMCICA=T,
 RKA=  130.00000000000000     ,
 DLWTOP=  74.000000000000000     ,
 DLWBOT=  0.0000000000000000     ,
 SW0=  1368.2200000000000     ,
 GC= 0.84999999999999998     ,
 REFF=  1.0000000000000001E-005,
 ISVSMOKE=1          ,
 LFORCE_USER=F,
 LCLOUDSHADING=F,
 LRIGIDLID=F,
 UNUDGE=  1.0000000000000000     ,
 LFAST_THERMO=T,
 /
&DYNAMICS
 LLSADV=F,
 LQLNR=F,
 LAMBDA_CRIT=  100.00000000000000     ,
 CU= -8.0000000000000000     ,
 CV=  0.0000000000000000     ,
 IBAS_PRF=3          ,
 IADV_MOM=2          ,
 IADV_TKE=2          ,
 IADV_THL=2          ,
 IADV_QT=2          ,
 IADV_SV=2          , 99*-1         ,
 LNOCLOUDS=F,
 /
&SOLVER
 SOLVER_ID=100        ,
 MAXITER=10000      ,
 TOLERANCE=  1.0000000000000000E-008,
 N_PRE=1          ,
 N_POST=1          ,
 PRECOND=1          ,
 /
 MPI mesh nprocx, nprocy:            1         128
 lev    dz     zf      zh       dzh    delta
  81     40.00   3220.00   3200.00     40.00     73.68
  80     40.00   3180.00   3160.00     40.00     73.68
  79     40.00   3140.00   3120.00     40.00     73.68
  78     40.00   3100.00   3080.00     40.00     73.68
  77     40.00   3060.00   3040.00     40.00     73.68
  76     40.00   3020.00   3000.00     40.00     73.68
  75     40.00   2980.00   2960.00     40.00     73.68
  74     40.00   2940.00   2920.00     40.00     73.68
  73     40.00   2900.00   2880.00     40.00     73.68
  72     40.00   2860.00   2840.00     40.00     73.68
  71     40.00   2820.00   2800.00     40.00     73.68
  70     40.00   2780.00   2760.00     40.00     73.68
  69     40.00   2740.00   2720.00     40.00     73.68
  68     40.00   2700.00   2680.00     40.00     73.68
  67     40.00   2660.00   2640.00     40.00     73.68
  66     40.00   2620.00   2600.00     40.00     73.68
  65     40.00   2580.00   2560.00     40.00     73.68
  64     40.00   2540.00   2520.00     40.00     73.68
  63     40.00   2500.00   2480.00     40.00     73.68
  62     40.00   2460.00   2440.00     40.00     73.68
  61     40.00   2420.00   2400.00     40.00     73.68
  60     40.00   2380.00   2360.00     40.00     73.68
  59     40.00   2340.00   2320.00     40.00     73.68
  58     40.00   2300.00   2280.00     40.00     73.68
  57     40.00   2260.00   2240.00     40.00     73.68
  56     40.00   2220.00   2200.00     40.00     73.68
  55     40.00   2180.00   2160.00     40.00     73.68
  54     40.00   2140.00   2120.00     40.00     73.68
  53     40.00   2100.00   2080.00     40.00     73.68
  52     40.00   2060.00   2040.00     40.00     73.68
  51     40.00   2020.00   2000.00     40.00     73.68
  50     40.00   1980.00   1960.00     40.00     73.68
  49     40.00   1940.00   1920.00     40.00     73.68
  48     40.00   1900.00   1880.00     40.00     73.68
  47     40.00   1860.00   1840.00     40.00     73.68
  46     40.00   1820.00   1800.00     40.00     73.68
  45     40.00   1780.00   1760.00     40.00     73.68
  44     40.00   1740.00   1720.00     40.00     73.68
  43     40.00   1700.00   1680.00     40.00     73.68
  42     40.00   1660.00   1640.00     40.00     73.68
  41     40.00   1620.00   1600.00     40.00     73.68
  40     40.00   1580.00   1560.00     40.00     73.68
  39     40.00   1540.00   1520.00     40.00     73.68
  38     40.00   1500.00   1480.00     40.00     73.68
  37     40.00   1460.00   1440.00     40.00     73.68
  36     40.00   1420.00   1400.00     40.00     73.68
  35     40.00   1380.00   1360.00     40.00     73.68
  34     40.00   1340.00   1320.00     40.00     73.68
  33     40.00   1300.00   1280.00     40.00     73.68
  32     40.00   1260.00   1240.00     40.00     73.68
  31     40.00   1220.00   1200.00     40.00     73.68
  30     40.00   1180.00   1160.00     40.00     73.68
  29     40.00   1140.00   1120.00     40.00     73.68
  28     40.00   1100.00   1080.00     40.00     73.68
  27     40.00   1060.00   1040.00     40.00     73.68
  26     40.00   1020.00   1000.00     40.00     73.68
  25     40.00    980.00    960.00     40.00     73.68
  24     40.00    940.00    920.00     40.00     73.68
  23     40.00    900.00    880.00     40.00     73.68
  22     40.00    860.00    840.00     40.00     73.68
  21     40.00    820.00    800.00     40.00     73.68
  20     40.00    780.00    760.00     40.00     73.68
  19     40.00    740.00    720.00     40.00     73.68
  18     40.00    700.00    680.00     40.00     73.68
  17     40.00    660.00    640.00     40.00     73.68
  16     40.00    620.00    600.00     40.00     73.68
  15     40.00    580.00    560.00     40.00     73.68
  14     40.00    540.00    520.00     40.00     73.68
  13     40.00    500.00    480.00     40.00     73.68
  12     40.00    460.00    440.00     40.00     73.68
  11     40.00    420.00    400.00     40.00     73.68
  10     40.00    380.00    360.00     40.00     73.68
   9     40.00    340.00    320.00     40.00     73.68
   8     40.00    300.00    280.00     40.00     73.68
   7     40.00    260.00    240.00     40.00     73.68
   6     40.00    220.00    200.00     40.00     73.68
   5     40.00    180.00    160.00     40.00     73.68
   4     40.00    140.00    120.00     40.00     73.68
   3     40.00    100.00     80.00     40.00     73.68
   2     40.00     60.00     40.00     40.00     73.68
   1     40.00     20.00      0.00     40.00     73.68
&NAMTESTBED
 LTESTBED=F,
 LTB_NUDGE=F,
 TB_TAUNUDGE=  10800.000000000000     ,
 /
&NAMDE
 SSA= 0.99900000000000000     ,
 IDE=1          ,
 LAERO=F,
 /
&NAMRADIATION
 LCNSTZENITH=F,
 CNSTZENITH=  0.0000000000000000     ,
 LCNSTALBEDO=T,
 IOVERLAP=2          ,
 INFLGLW=2          ,
 ICEFLGLW=3          ,
 LIQFLGLW=1          ,
 INFLGSW=2          ,
 ICEFLGSW=3          ,
 LIQFLGSW=1          ,
 OCEAN=F,
 USERO3=F,
 CO2FACTOR=  1.0000000000000000     ,
 DOPERPETUAL=F,
 DOSEASONS=T,
 IYEAR=1992       ,
 /
&NAMCHEM
 LCHEM=F,
 LCLOUDKCONST=F,
 TNOR=0          ,
 FIRSTCHEM=1          ,
 LASTCHEM=0          ,
 LDIUVAR=F,
 H_REF=  12.000000000000000     ,
 LCHCONST=F,
 T_REF=  298.00000000000000     ,
 Q_REF=  5.0000000000000001E-003,
 P_REF=  100000.00000000000     ,
 LCHMOVIE=F,
 DTCHMOVIE=  60.000000000000000     ,
 LSEGR=F,
 /
&NAMSURFACE
 ISURF=3          ,
 TSOILAV= 4*0.0000000000000000       ,
 TSOILDEEPAV=  0.0000000000000000     ,
 PHIWAV= 4*0.0000000000000000       ,
 ROOTFAV= 4*0.0000000000000000       ,
 LMOSTLOCAL=F,
 LSMOOTHFLUX=F,
 LNEUTRAL=F,
 Z0MAV= -1.0000000000000000     ,
 Z0HAV= -1.0000000000000000     ,
 RSISURF2=  0.0000000000000000     ,
 CSKINAV= -1.0000000000000000     ,
 LAMBDASKINAV= -1.0000000000000000     ,
 ALBEDOAV= -1.0000000000000000     ,
 QNETAV= -1.0000000000000000     ,
 CVEGAV= -1.0000000000000000     ,
 WLAV= -1.0000000000000000     ,
 RSMINAV= -1.0000000000000000     ,
 RSSOILMINAV= -1.0000000000000000     ,
 LAIAV= -1.0000000000000000     ,
 GDAV=  0.0000000000000000     ,
 Z0=  2.0000000000000001E-004,
 THLS=  299.10000000000002     ,
 PS=  101500.00000000000     ,
 USTIN= 0.28000000000000003     ,
 WTSURF=  8.0000000000000002E-003,
 WQSURF=  5.1999999999999997E-005,
 WSVSURF= 100*0.0000000000000000       ,
 LHETERO=F,
 XPATCHES=2          ,
 YPATCHES=1          ,
 LAND_USE= 256*0          ,
 LOLDTABLE=F,
 LRSAGS=F,
 LCO2AGS=F,
 PLANTTYPE=3          ,
 LRELAXGC=F,
 KGC=  1.1299999999999999E-003,
 LRELAXCI=F,
 KCI=  1.1299999999999999E-003,
 PHI= 0.47199999999999998     ,
 PHIFC= 0.32300000000000001     ,
 PHIWP= 0.17100000000000001     ,
 R10= 0.23000000000000001     ,
 T2GM=  301.00000000000000     ,
 Q10GM=  2.0000000000000000     ,
 LSPLITLEAF=F,
 I_EXPEMIS=-1         ,
 EXPEMIS0=  0.0000000000000000     ,
 EXPEMIS1=  0.0000000000000000     ,
 EXPEMIS2=  10800.000000000000     ,
 /
 WARNING: z0m and z0h not defined, set equal to z0
&NAMSUBGRID
 LDELTA=F,
 LMASON=F,
 CF=  2.5000000000000000     ,
 CN= 0.76000000000000001     ,
 RIGC= 0.25000000000000000     ,
 PRANDTL= 0.33333333333333331     ,
 LSMAGORINSKY=F,
 CS= -1.0000000000000000     ,
 NMASON=  2.0000000000000000     ,
 SGS_SURFACE_FIX=F,
 CH1=  1.0000000000000000     ,
 LANISOTROP=F,
 /
 cf    =    2.5000000000000000     
 cm    =   0.11789255043844099     
 ch    =    3.0000000000000000     
 ch1   =    1.0000000000000000     
 ch2   =    2.0000000000000000     
 ceps  =   0.74467381418424716     
 ceps1 =   0.20428421139973055     
 ceps2 =   0.54038960278451664     
 cs    =   -1.0000000000000000     
 Rigc  =   0.25000000000000000     
&NAMMICROPHYSICS
 IMICRO=0          ,
 L_SB=T,
 L_RAIN=T,
 L_SEDC=T,
 L_MUR_CST=F,
 L_BERRY=T,
 L_GRAUPEL=T,
 L_WARM=F,
 MUR_CST=  5.0000000000000000     ,
 NC_0=  70000000.000000000     ,
 SIG_G=  1.3400000000000001     ,
 SIG_GR=  1.5000000000000000     ,
 COURANTP=  1.0000000000000000     ,
 /
# #Bomex 10-10-2001                                                             
 height    thl      qt         u      v     e12
 3180.0   312.5  0.2784E-02   -4.3    0.0    0.0
 3140.0   312.4  0.2832E-02   -4.4    0.0    0.0
 3100.0   312.2  0.2880E-02   -4.4    0.0    0.0
 3060.0   312.1  0.2928E-02   -4.5    0.0    0.0
 3020.0   311.9  0.2976E-02   -4.6    0.0    0.0
 2980.0   311.8  0.3024E-02   -4.6    0.0    0.0
 2940.0   311.6  0.3072E-02   -4.7    0.0    0.0
 2900.0   311.5  0.3120E-02   -4.8    0.0    0.0
 2860.0   311.3  0.3168E-02   -4.9    0.0    0.0
 2820.0   311.2  0.3216E-02   -4.9    0.0    0.1
 2780.0   311.0  0.3264E-02   -5.0    0.0    0.1
 2740.0   310.9  0.3312E-02   -5.1    0.0    0.1
 2700.0   310.8  0.3360E-02   -5.2    0.0    0.1
 2660.0   310.6  0.3408E-02   -5.2    0.0    0.1
 2620.0   310.5  0.3456E-02   -5.3    0.0    0.1
 2580.0   310.3  0.3504E-02   -5.4    0.0    0.1
 2540.0   310.2  0.3552E-02   -5.4    0.0    0.2
 2500.0   310.0  0.3600E-02   -5.5    0.0    0.2
 2460.0   309.9  0.3648E-02   -5.6    0.0    0.2
 2420.0   309.7  0.3696E-02   -5.7    0.0    0.2
 2380.0   309.6  0.3744E-02   -5.7    0.0    0.2
 2340.0   309.4  0.3792E-02   -5.8    0.0    0.2
 2300.0   309.3  0.3840E-02   -5.9    0.0    0.2
 2260.0   309.1  0.3888E-02   -5.9    0.0    0.2
 2220.0   309.0  0.3936E-02   -6.0    0.0    0.3
 2180.0   308.9  0.3984E-02   -6.1    0.0    0.3
 2140.0   308.7  0.4032E-02   -6.2    0.0    0.3
 2100.0   308.6  0.4080E-02   -6.2    0.0    0.3
 WARNING: z0m and z0h not defined, set equal to z0
 WARNING: z0m and z0h not defined, set equal to z0
 WARNING: z0m and z0h not defined, set equal to z0
 WARNING: z0m and z0h not defined, set equal to z0
 WARNING: z0m and z0h not defined, set equal to z0
 WARNING: z0m and z0h not defined, set equal to z0
 WARNING: z0m and z0h not defined, set equal to z0
 WARNING: z0m and z0h not defined, set equal to z0
 WARNING: z0m and z0h not defined, set equal to z0
 WARNING: z0m and z0h not defined, set equal to z0
 WARNING: z0m and z0h not defined, set equal to z0
 WARNING: z0m and z0h not defined, set equal to z0
 WARNING: z0m and z0h not defined, set equal to z0
 WARNING: z0m and z0h not defined, set equal to z0
 WARNING: z0m and z0h not defined, set equal to z0
 WARNING: z0m and z0h not defined, set equal to z0
 WARNING: z0m and z0h not defined, set equal to z0
 WARNING: z0m and z0h not defined, set equal to z0
 WARNING: z0m and z0h not defined, set equal to z0
 WARNING: z0m and z0h not defined, set equal to z0
 WARNING: z0m and z0h not defined, set equal to z0
 WARNING: z0m and z0h not defined, set equal to z0
 WARNING: z0m and z0h not defined, set equal to z0
 WARNING: z0m and z0h not defined, set equal to z0
 WARNING: z0m and z0h not defined, set equal to z0
 WARNING: z0m and z0h not defined, set equal to z0
 WARNING: z0m and z0h not defined, set equal to z0
 WARNING: z0m and z0h not defined, set equal to z0
 WARNING: z0m and z0h not defined, set equal to z0
 WARNING: z0m and z0h not defined, set equal to z0
 WARNING: z0m and z0h not defined, set equal to z0
 WARNING: z0m and z0h not defined, set equal to z0
 WARNING: z0m and z0h not defined, set equal to z0
 WARNING: z0m and z0h not defined, set equal to z0
 WARNING: z0m and z0h not defined, set equal to z0
 WARNING: z0m and z0h not defined, set equal to z0
 WARNING: z0m and z0h not defined, set equal to z0
 WARNING: z0m and z0h not defined, set equal to z0
 WARNING: z0m and z0h not defined, set equal to z0
 WARNING: z0m and z0h not defined, set equal to z0
 WARNING: z0m and z0h not defined, set equal to z0
 WARNING: z0m and z0h not defined, set equal to z0
 WARNING: z0m and z0h not defined, set equal to z0
 WARNING: z0m and z0h not defined, set equal to z0
 WARNING: z0m and z0h not defined, set equal to z0
 WARNING: z0m and z0h not defined, set equal to z0
 WARNING: z0m and z0h not defined, set equal to z0
 WARNING: z0m and z0h not defined, set equal to z0
 WARNING: z0m and z0h not defined, set equal to z0
 WARNING: z0m and z0h not defined, set equal to z0
 WARNING: z0m and z0h not defined, set equal to z0
 WARNING: z0m and z0h not defined, set equal to z0
 WARNING: z0m and z0h not defined, set equal to z0
 WARNING: z0m and z0h not defined, set equal to z0
 WARNING: z0m and z0h not defined, set equal to z0
 WARNING: z0m and z0h not defined, set equal to z0
 WARNING: z0m and z0h not defined, set equal to z0
 WARNING: z0m and z0h not defined, set equal to z0
 WARNING: z0m and z0h not defined, set equal to z0
 WARNING: z0m and z0h not defined, set equal to z0
 WARNING: z0m and z0h not defined, set equal to z0
 WARNING: z0m and z0h not defined, set equal to z0
 WARNING: z0m and z0h not defined, set equal to z0
 WARNING: z0m and z0h not defined, set equal to z0
 WARNING: z0m and z0h not defined, set equal to z0
 WARNING: z0m and z0h not defined, set equal to z0
 WARNING: z0m and z0h not defined, set equal to z0
 WARNING: z0m and z0h not defined, set equal to z0
 WARNING: z0m and z0h not defined, set equal to z0
 WARNING: z0m and z0h not defined, set equal to z0
 WARNING: z0m and z0h not defined, set equal to z0
 WARNING: z0m and z0h not defined, set equal to z0
 WARNING: z0m and z0h not defined, set equal to z0
 WARNING: z0m and z0h not defined, set equal to z0
 WARNING: z0m and z0h not defined, set equal to z0
 WARNING: z0m and z0h not defined, set equal to z0
 WARNING: z0m and z0h not defined, set equal to z0
 WARNING: z0m and z0h not defined, set equal to z0
 WARNING: z0m and z0h not defined, set equal to z0
 WARNING: z0m and z0h not defined, set equal to z0
 WARNING: z0m and z0h not defined, set equal to z0
 WARNING: z0m and z0h not defined, set equal to z0
 WARNING: z0m and z0h not defined, set equal to z0
 WARNING: z0m and z0h not defined, set equal to z0
 WARNING: z0m and z0h not defined, set equal to z0
 WARNING: z0m and z0h not defined, set equal to z0
 WARNING: z0m and z0h not defined, set equal to z0
 WARNING: z0m and z0h not defined, set equal to z0
 WARNING: z0m and z0h not defined, set equal to z0
 WARNING: z0m and z0h not defined, set equal to z0
 WARNING: z0m and z0h not defined, set equal to z0
 WARNING: z0m and z0h not defined, set equal to z0
 WARNING: z0m and z0h not defined, set equal to z0
 WARNING: z0m and z0h not defined, set equal to z0
 WARNING: z0m and z0h not defined, set equal to z0
 WARNING: z0m and z0h not defined, set equal to z0
 WARNING: z0m and z0h not defined, set equal to z0
 WARNING: z0m and z0h not defined, set equal to z0
 WARNING: z0m and z0h not defined, set equal to z0
 WARNING: z0m and z0h not defined, set equal to z0
 WARNING: z0m and z0h not defined, set equal to z0
 WARNING: z0m and z0h not defined, set equal to z0
 WARNING: z0m and z0h not defined, set equal to z0
 WARNING: z0m and z0h not defined, set equal to z0
 WARNING: z0m and z0h not defined, set equal to z0
 WARNING: z0m and z0h not defined, set equal to z0
 WARNING: z0m and z0h not defined, set equal to z0
 WARNING: z0m and z0h not defined, set equal to z0
 WARNING: z0m and z0h not defined, set equal to z0
 WARNING: z0m and z0h not defined, set equal to z0
 WARNING: z0m and z0h not defined, set equal to z0
 WARNING: z0m and z0h not defined, set equal to z0
 WARNING: z0m and z0h not defined, set equal to z0
 WARNING: z0m and z0h not defined, set equal to z0
 WARNING: z0m and z0h not defined, set equal to z0
 WARNING: z0m and z0h not defined, set equal to z0
 WARNING: z0m and z0h not defined, set equal to z0
 WARNING: z0m and z0h not defined, set equal to z0
 WARNING: z0m and z0h not defined, set equal to z0
 WARNING: z0m and z0h not defined, set equal to z0
 WARNING: z0m and z0h not defined, set equal to z0
 WARNING: z0m and z0h not defined, set equal to z0
 WARNING: z0m and z0h not defined, set equal to z0
 WARNING: z0m and z0h not defined, set equal to z0
 WARNING: z0m and z0h not defined, set equal to z0
 WARNING: z0m and z0h not defined, set equal to z0
 WARNING: z0m and z0h not defined, set equal to z0
 2060.0   308.4  0.4128E-02   -6.3    0.0    0.3
 2020.0   308.3  0.4176E-02   -6.4    0.0    0.3
 1980.0   308.0  0.4450E-02   -6.4    0.0    0.3
 1940.0   307.5  0.4950E-02   -6.5    0.0    0.4
 1900.0   307.1  0.5450E-02   -6.6    0.0    0.4
 1860.0   306.6  0.5950E-02   -6.7    0.0    0.4
 1820.0   306.2  0.6450E-02   -6.7    0.0    0.4
 1780.0   305.7  0.6950E-02   -6.8    0.0    0.4
 1740.0   305.3  0.7450E-02   -6.9    0.0    0.4
 1700.0   304.9  0.7950E-02   -7.0    0.0    0.4
 1660.0   304.4  0.8450E-02   -7.0    0.0    0.4
 1620.0   304.0  0.8950E-02   -7.1    0.0    0.5
 1580.0   303.5  0.9450E-02   -7.2    0.0    0.5
 1540.0   303.1  0.9950E-02   -7.2    0.0    0.5
 1500.0   302.6  0.1045E-01   -7.3    0.0    0.5
 1460.0   302.3  0.1082E-01   -7.4    0.0    0.5
 1420.0   302.2  0.1105E-01   -7.5    0.0    0.5
 1380.0   302.0  0.1128E-01   -7.5    0.0    0.5
 1340.0   301.9  0.1152E-01   -7.6    0.0    0.6
 1300.0   301.7  0.1175E-01   -7.7    0.0    0.6
 1260.0   301.6  0.1198E-01   -7.7    0.0    0.6
 1220.0   301.4  0.1222E-01   -7.8    0.0    0.6
 1180.0   301.2  0.1245E-01   -7.9    0.0    0.6
 1140.0   301.1  0.1268E-01   -8.0    0.0    0.6
 1100.0   300.9  0.1292E-01   -8.0    0.0    0.6
 1060.0   300.8  0.1315E-01   -8.1    0.0    0.6
 1020.0   300.6  0.1338E-01   -8.2    0.0    0.7
  980.0   300.5  0.1362E-01   -8.2    0.0    0.7
  940.0   300.3  0.1385E-01   -8.3    0.0    0.7
  900.0   300.2  0.1408E-01   -8.4    0.0    0.7
  860.0   300.0  0.1432E-01   -8.5    0.0    0.7
  820.0   299.9  0.1455E-01   -8.5    0.0    0.7
  780.0   299.7  0.1478E-01   -8.6    0.0    0.7
  740.0   299.5  0.1502E-01   -8.7    0.0    0.8
  700.0   299.4  0.1525E-01   -8.8    0.0    0.8
  660.0   299.2  0.1548E-01   -8.8    0.0    0.8
  620.0   299.1  0.1572E-01   -8.8    0.0    0.8
  580.0   298.9  0.1595E-01   -8.8    0.0    0.8
  540.0   298.8  0.1618E-01   -8.8    0.0    0.8
  500.0   298.7  0.1633E-01   -8.8    0.0    0.8
  460.0   298.7  0.1638E-01   -8.8    0.0    0.8
  420.0   298.7  0.1643E-01   -8.8    0.0    0.9
  380.0   298.7  0.1649E-01   -8.8    0.0    0.9
  340.0   298.7  0.1654E-01   -8.8    0.0    0.9
  300.0   298.7  0.1660E-01   -8.8    0.0    0.9
  260.0   298.7  0.1665E-01   -8.8    0.0    0.9
  220.0   298.7  0.1670E-01   -8.8    0.0    0.9
  180.0   298.7  0.1676E-01   -8.8    0.0    0.9
  140.0   298.7  0.1681E-01   -8.8    0.0    1.0
  100.0   298.7  0.1687E-01   -8.8    0.0    1.0
   60.0   298.7  0.1692E-01   -8.8    0.0    1.0
   20.0   298.7  0.1697E-01   -8.8    0.0    1.0
  height   rhobf       rhobh
    0.0  0.86634263254328869E+00  0.86806901953251825E+00
 3180.0  0.86979540652174780E+00  0.87152179351097736E+00
 3140.0  0.87324818050020692E+00  0.87497980623483840E+00
 3100.0  0.87671143196946999E+00  0.87844830745677993E+00
 3060.0  0.88018518294408987E+00  0.88192731920422995E+00
 3020.0  0.88366945546437004E+00  0.88541686353036264E+00
 2980.0  0.88716427159635514E+00  0.88891696251410734E+00
 2940.0  0.89066965343185955E+00  0.89242763826015337E+00
 2900.0  0.89418562308844696E+00  0.89594891289895462E+00
 2860.0  0.89771220270946239E+00  0.89948080858674562E+00
 2820.0  0.90124941446402873E+00  0.90302334750553537E+00
 2780.0  0.90479728054704212E+00  0.90657655186311692E+00
 2740.0  0.90835582317919161E+00  0.91014044389307802E+00
 2700.0  0.91192506460696454E+00  0.91371504585480245E+00
 2660.0  0.91550502710264026E+00  0.91730038003348091E+00
 2620.0  0.91909573296432157E+00  0.92089646874011299E+00
 2580.0  0.92269720451590420E+00  0.92450333431150944E+00
 2540.0  0.92630946410711490E+00  0.92812099911030987E+00
 2500.0  0.92993253411350496E+00  0.93174948552497872E+00
 2460.0  0.93356643693645269E+00  0.93538881596981782E+00
 2420.0  0.93721119500318295E+00  0.93903901288496772E+00
 2380.0  0.94086683076675270E+00  0.94270009873641547E+00
 2340.0  0.94453336670607835E+00  0.94637209601600181E+00
 2300.0  0.94821082532592527E+00  0.95005502724142388E+00
 2260.0  0.95189922915692249E+00  0.95374891495624947E+00
 2220.0  0.95559860075557645E+00  0.95745378172991358E+00
 2180.0  0.95930896270425081E+00  0.96116965015772549E+00
 2140.0  0.96303033761120016E+00  0.96489654286088322E+00
 2100.0  0.96676274811056628E+00  0.96863448248647344E+00
 2060.0  0.97050621686238081E+00  0.97238349170747485E+00
 2020.0  0.97426076655256888E+00  0.97614359322276889E+00
 1980.0  0.97802641989296890E+00  0.97991480975714784E+00
 1940.0  0.98180319962132689E+00  0.98369716406131524E+00
 1900.0  0.98559112850130359E+00  0.98749067891189379E+00
 1860.0  0.98939022932248399E+00  0.99129537711143190E+00
 1820.0  0.99320052490037980E+00  0.99511128148840700E+00
 1780.0  0.99702203807643430E+00  0.99893841489724056E+00
 1740.0  0.10008547917180468E+01  0.10027768002182946E+01
 1700.0  0.10046988087185424E+01  0.10066264603578805E+01
 1660.0  0.10085541119972183E+01  0.10104874182482686E+01
 1620.0  0.10124207244993189E+01  0.10143596968476847E+01
 1580.0  0.10162986691960507E+01  0.10182433191403266E+01
 1540.0  0.10201879690846023E+01  0.10221383081363666E+01
 1500.0  0.10240886471881312E+01  0.10260446868719570E+01
 1460.0  0.10280007265557829E+01  0.10299624784092392E+01
 1420.0  0.10319242302626952E+01  0.10338917058363379E+01
 1380.0  0.10358591814099805E+01  0.10378323922673789E+01
 1340.0  0.10398056031247773E+01  0.10417845608424998E+01
 1300.0  0.10437635185602221E+01  0.10457482347278402E+01
 1260.0  0.10477329508954583E+01  0.10497234371155542E+01
 1220.0  0.10517139233356501E+01  0.10537101912238238E+01
 1180.0  0.10557064591119978E+01  0.10577085202968561E+01
 1140.0  0.10597105814817145E+01  0.10617184476048922E+01
 1100.0  0.10637263137280699E+01  0.10657399964442149E+01
 1060.0  0.10677536791603599E+01  0.10697731901371488E+01
 1020.0  0.10717927011139374E+01  0.10738180520320741E+01
  980.0  0.10758434029502109E+01  0.10778746055034254E+01
  940.0  0.10799058080566402E+01  0.10819428739517050E+01
  900.0  0.10839799398467698E+01  0.10860228808034853E+01
  860.0  0.10880658217602006E+01  0.10901146495114067E+01
  820.0  0.10921634772626125E+01  0.10942182035541956E+01
  780.0  0.10962729298457787E+01  0.10983335664366700E+01
  740.0  0.11003942030275615E+01  0.11024607616897386E+01
  700.0  0.11045273203519157E+01  0.11065998128704095E+01
  660.0  0.11086723053889034E+01  0.11107507435617938E+01
  620.0  0.11128291817346843E+01  0.11149135773731149E+01
  580.0  0.11169979730115458E+01  0.11190883379397145E+01
  540.0  0.11211787028678830E+01  0.11232750489230567E+01
  500.0  0.11253713949782307E+01  0.11274737340107377E+01
  460.0  0.11295760730432447E+01  0.11316844169164837E+01
  420.0  0.11337927607897227E+01  0.11359071213801650E+01
  380.0  0.11380214819706072E+01  0.11401418711677971E+01
  340.0  0.11422622603649872E+01  0.11443886900715463E+01
  300.0  0.11465151197781056E+01  0.11486476019097396E+01
  260.0  0.11507800840413736E+01  0.11529186305268697E+01
  220.0  0.11550571770123659E+01  0.11572017997935997E+01
  180.0  0.11593464225748336E+01  0.11614971336067659E+01
  140.0  0.11636478446386984E+01  0.11658046558893873E+01
  100.0  0.11679614671400762E+01  0.11701243905906735E+01
   60.0  0.11722873140412711E+01  0.11744563616860266E+01
   20.0  0.11766254093307822E+01  0.11787944569755378E+01
  height   drhobdzf    drhobdzh
    0.0 -0.86319349461477793E-04 -0.86319349461477793E-04
 3180.0 -0.86319349461477793E-04 -0.86319349461477793E-04
 3140.0 -0.86450318096525927E-04 -0.86581286731576840E-04
 3100.0 -0.86712530548538336E-04 -0.86843774365497067E-04
 3060.0 -0.86975293686250571E-04 -0.87106813007004075E-04
 3020.0 -0.87238608153317182E-04 -0.87370403299627525E-04
 2980.0 -0.87502474593617596E-04 -0.87634545887610432E-04
 2940.0 -0.87766893651150529E-04 -0.87899241414685084E-04
 2900.0 -0.88031865970031317E-04 -0.88164490525385886E-04
 2860.0 -0.88297392194774946E-04 -0.88430293864158463E-04
 2820.0 -0.88563472969743759E-04 -0.88696652075334612E-04
 2780.0 -0.88830108939538802E-04 -0.88963565803737435E-04
 2740.0 -0.89097300749027547E-04 -0.89231035694323230E-04
 2700.0 -0.89365049043110822E-04 -0.89499062391892872E-04
 2660.0 -0.89633354466961412E-04 -0.89767646542032731E-04
 2620.0 -0.89902217665802084E-04 -0.90036788789565894E-04
 2580.0 -0.90171639284911115E-04 -0.90306489780267449E-04
 2540.0 -0.90441619970010873E-04 -0.90576750159751532E-04
 2500.0 -0.90712160366721023E-04 -0.90847570573693306E-04
 2460.0 -0.90983261120977657E-04 -0.91118951668256451E-04
 2420.0 -0.91254922878747371E-04 -0.91390894089243835E-04
 2380.0 -0.91527146286193845E-04 -0.91663398483141090E-04
 2340.0 -0.91799931989658415E-04 -0.91936465496172962E-04
 2300.0 -0.92073280635551755E-04 -0.92210095774930562E-04
 2260.0 -0.92347192870639858E-04 -0.92484289966349167E-04
 2220.0 -0.92621669341602658E-04 -0.92759048716858913E-04
 2180.0 -0.92896710695297696E-04 -0.93034372673733714E-04
 2140.0 -0.93172317578943403E-04 -0.93310262484153078E-04
 2100.0 -0.93448490639755350E-04 -0.93586718795363177E-04
 2060.0 -0.93725230525035233E-04 -0.93863742254701732E-04
 2020.0 -0.94002537882351139E-04 -0.94141333510000533E-04
 1980.0 -0.94280413359473791E-04 -0.94419493208949828E-04
 1940.0 -0.94558857604185026E-04 -0.94698221999417459E-04
 1900.0 -0.94837871264463747E-04 -0.94977520529510034E-04
 1860.0 -0.95117454988452585E-04 -0.95257389447395149E-04
 1820.0 -0.95397609424377467E-04 -0.95537829401362576E-04
 1780.0 -0.95678335220839017E-04 -0.95818841040312680E-04
 1740.0 -0.95959633026351804E-04 -0.96100425012390914E-04
 1700.0 -0.96241503489646882E-04 -0.96382581966897307E-04
 1660.0 -0.96523947259702370E-04 -0.96665312552512988E-04
 1620.0 -0.96806964985401978E-04 -0.96948617418296523E-04
 1580.0 -0.97090557316048542E-04 -0.97232497213789462E-04
 1540.0 -0.97374724901000412E-04 -0.97516952588222461E-04
 1500.0 -0.97659468389760254E-04 -0.97801984191292490E-04
 1460.0 -0.97944788432052782E-04 -0.98087592672807530E-04
 1420.0 -0.98230685677469515E-04 -0.98373778682131485E-04
 1380.0 -0.98517160776023793E-04 -0.98660542869921658E-04
 1340.0 -0.98804214378023225E-04 -0.98947885886119249E-04
 1300.0 -0.99091847133508934E-04 -0.99235808380904175E-04
 1260.0 -0.99380059692849582E-04 -0.99524311004794974E-04
 1220.0 -0.99668852706741312E-04 -0.99813394408693193E-04
 1180.0 -0.99958226825808130E-04 -0.10010305924291751E-03
 1140.0 -0.10024818270090163E-03 -0.10039330615888576E-03
 1100.0 -0.10053872098306771E-03 -0.10068413580724967E-03
 1060.0 -0.10082984232334669E-03 -0.10097554883943816E-03
 1020.0 -0.10112154737313417E-03 -0.10126754590683573E-03
  980.0 -0.10141383678378136E-03 -0.10156012766073253E-03
  940.0 -0.10170671120698915E-03 -0.10185329475324024E-03
  900.0 -0.10200017129450844E-03 -0.10214704783577111E-03
  860.0 -0.10229421769803460E-03 -0.10244138756029808E-03
  820.0 -0.10258885106972370E-03 -0.10273631457915488E-03
  780.0 -0.10288407206185957E-03 -0.10303182954456979E-03
  740.0 -0.10317988132671485E-03 -0.10332793310885435E-03
  700.0 -0.10347627951677318E-03 -0.10362462592469201E-03
  660.0 -0.10377326728460700E-03 -0.10392190864452199E-03
  620.0 -0.10407084528302746E-03 -0.10421978192153846E-03
  580.0 -0.10436901416499000E-03 -0.10451824640843043E-03
  540.0 -0.10466777458355559E-03 -0.10481730275869184E-03