 DALES 4.4 git: 423e44-dirty
 namoptions.001                                                                                                                                                                                                                                                  
 &RUN
 IEXPNR =            1,
 LWARMSTART =  F,
 STARTFILE = initd001h00mx000y000.001                          ,
 LTOTRUNTIME =  F,
 RUNTIME =    28800.00000000000     ,
 DTMAX =    20.00000000000000     ,
 WCTIME =    8640000.000000000     ,
 DTAV_GLOB =    60.00000000000000     ,
 TIMEAV_GLOB =    3600.000000000000     ,
 TRESTART =   -1.000000000000000     ,
 IRANDOM =          251,
 RANDTHL =   0.1000000000000000     ,
 RANDQT =   2.5000000000000001E-005,
 KRAND =   2147483647,
 NSV =            0,
 COURANT =   -1.000000000000000     ,
 PECLET =   0.1500000000000000     ,
 LADAPTIVE =  T,
 AUTHOR =                                                                                 ,
 KRANDUMIN =            1,
 KRANDUMAX =            0,
 RANDU =   0.5000000000000000     ,
 NPROCX =            1,
 NPROCY =            0,
 LOUTDIRS =  F
 /
 &DOMAIN
 ITOT =           64,
 JTOT =           64,
 KMAX =           80,
 XSIZE =    6400.000000000000     ,
 YSIZE =    6400.000000000000     ,
 XLAT =    15.00000000000000     ,
 XLON =    0.000000000000000     ,
 XYEAR =            0,
 XDAY =    0.000000000000000     ,
 XTIME =    0.000000000000000     ,
 KSP =           -1
 /
 &PHYSICS
 Z0 =   2.0000000000000001E-004,
 USTIN =   -1.000000000000000     ,
 WTSURF =  -1.0000000000000000E+020,
 WQSURF =  -1.0000000000000000E+020,
 WSVSURF =    0.000000000000000     ,
              0.000000000000000     ,
              0.000000000000000     ,
              0.000000000000000     ,
              0.000000000000000     ,
              0.000000000000000     ,
              0.000000000000000     ,
              0.000000000000000     ,
              0.000000000000000     ,
              0.000000000000000     ,
              0.000000000000000     ,
              0.000000000000000     ,
              0.000000000000000     ,
              0.000000000000000     ,
              0.000000000000000     ,
              0.000000000000000     ,
              0.000000000000000     ,
              0.000000000000000     ,
              0.000000000000000     ,
              0.000000000000000     ,
              0.000000000000000     ,
              0.000000000000000     ,
              0.000000000000000     ,
              0.000000000000000     ,
              0.000000000000000     ,
              0.000000000000000     ,
              0.000000000000000     ,
              0.000000000000000     ,
              0.000000000000000     ,
              0.000000000000000     ,
              0.000000000000000     ,
              0.000000000000000     ,
              0.000000000000000     ,
              0.000000000000000     ,
              0.000000000000000     ,
              0.000000000000000     ,
              0.000000000000000     ,
              0.000000000000000     ,
              0.000000000000000     ,
              0.000000000000000     ,
              0.000000000000000     ,
              0.000000000000000     ,
              0.000000000000000     ,
              0.000000000000000     ,
              0.000000000000000     ,
              0.000000000000000     ,
              0.000000000000000     ,
              0.000000000000000     ,
              0.000000000000000     ,
              0.000000000000000     ,
              0.000000000000000     ,
              0.000000000000000     ,
              0.000000000000000     ,
              0.000000000000000     ,
              0.000000000000000     ,
              0.000000000000000     ,
              0.000000000000000     ,
              0.000000000000000     ,
              0.000000000000000     ,
              0.000000000000000     ,
              0.000000000000000     ,
              0.000000000000000     ,
              0.000000000000000     ,
              0.000000000000000     ,
              0.000000000000000     ,
              0.000000000000000     ,
              0.000000000000000     ,
              0.000000000000000     ,
              0.000000000000000     ,
              0.000000000000000     ,
              0.000000000000000     ,
              0.000000000000000     ,
              0.000000000000000     ,
              0.000000000000000     ,
              0.000000000000000     ,
              0.000000000000000     ,
              0.000000000000000     ,
              0.000000000000000     ,
              0.000000000000000     ,
              0.000000000000000     ,
              0.000000000000000     ,
              0.000000000000000     ,
              0.000000000000000     ,
              0.000000000000000     ,
              0.000000000000000     ,
              0.000000000000000     ,
              0.000000000000000     ,
              0.000000000000000     ,
              0.000000000000000     ,
              0.000000000000000     ,
              0.000000000000000     ,
              0.000000000000000     ,
              0.000000000000000     ,
              0.000000000000000     ,
              0.000000000000000     ,
              0.000000000000000     ,
              0.000000000000000     ,
              0.000000000000000     ,
              0.000000000000000     ,
              0.000000000000000     ,
 PS =    101500.0000000000     ,
 THLS =    299.1000000000000     ,
 LMOIST =  T,
 ISURF =           -1,
 CHI_HALF =   0.5000000000000000     ,
 LCORIOL =  T,
 LPRESSGRAD =  T,
 IGRW_DAMP =            2,
 GEODAMPTIME =    7200.000000000000     ,
 LMOMSUBS =  F,
 LTIMEDEP =  F,
 LTIMEDEPUV =  F,
 LTIMEDEPSV =  F,
 NTIMEDEP =          100,
 IRAD =           -1,
 TIMERAD =    0.000000000000000     ,
 IRADIATION =            0,
 RAD_LS =  T,
 RAD_LONGW =  T,
 RAD_SHORTW =  T,
 RAD_SMOKE =  F,
 USEMCICA =  T,
 RKA =    130.0000000000000     ,
 DLWTOP =    74.00000000000000     ,
 DLWBOT =    0.000000000000000     ,
 SW0 =    1368.220000000000     ,
 GC =   0.8500000000000000     ,
 REFF =   1.0000000000000001E-005,
 ISVSMOKE =            1,
 LFORCE_USER =  F,
 LCLOUDSHADING =  F,
 LRIGIDLID =  F,
 UNUDGE =    1.000000000000000     ,
 LFAST_THERMO =  T
 /
 &DYNAMICS
 LLSADV =  F,
 LQLNR =  F,
 LAMBDA_CRIT =    100.0000000000000     ,
 CU =   -8.000000000000000     ,
 CV =    0.000000000000000     ,
 IBAS_PRF =            3,
 IADV_MOM =            2,
 IADV_TKE =            2,
 IADV_THL =            2,
 IADV_QT =            2,
 IADV_SV =            2,
                     -1,
                     -1,
                     -1,
                     -1,
                     -1,
                     -1,
                     -1,
                     -1,
                     -1,
                     -1,
                     -1,
                     -1,
                     -1,
                     -1,
                     -1,
                     -1,
                     -1,
                     -1,
                     -1,
                     -1,
                     -1,
                     -1,
                     -1,
                     -1,
                     -1,
                     -1,
                     -1,
                     -1,
                     -1,
                     -1,
                     -1,
                     -1,
                     -1,
                     -1,
                     -1,
                     -1,
                     -1,
                     -1,
                     -1,
                     -1,
                     -1,
                     -1,
                     -1,
                     -1,
                     -1,
                     -1,
                     -1,
                     -1,
                     -1,
                     -1,
                     -1,
                     -1,
                     -1,
                     -1,
                     -1,
                     -1,
                     -1,
                     -1,
                     -1,
                     -1,
                     -1,
                     -1,
                     -1,
                     -1,
                     -1,
                     -1,
                     -1,
                     -1,
                     -1,
                     -1,
                     -1,
                     -1,
                     -1,
                     -1,
                     -1,
                     -1,
                     -1,
                     -1,
                     -1,
                     -1,
                     -1,
                     -1,
                     -1,
                     -1,
                     -1,
                     -1,
                     -1,
                     -1,
                     -1,
                     -1,
                     -1,
                     -1,
                     -1,
                     -1,
                     -1,
                     -1,
                     -1,
                     -1,
                     -1,
 LNOCLOUDS =  F
 /
 &SOLVER
 SOLVER_ID =          200,
 MAXITER =        10000,
 TOLERANCE =   1.0000000000000000E-008,
 N_PRE =            1,
 N_POST =            1,
 PRECOND =            1
 /
 MPI mesh nprocx, nprocy:             1            1
 lev    dz     zf      zh       dzh    delta
  81     40.00   3220.00   3200.00     40.00     73.68
  80     40.00   3180.00   3160.00     40.00     73.68
  79     40.00   3140.00   3120.00     40.00     73.68
  78     40.00   3100.00   3080.00     40.00     73.68
  77     40.00   3060.00   3040.00     40.00     73.68
  76     40.00   3020.00   3000.00     40.00     73.68
  75     40.00   2980.00   2960.00     40.00     73.68
  74     40.00   2940.00   2920.00     40.00     73.68
  73     40.00   2900.00   2880.00     40.00     73.68
  72     40.00   2860.00   2840.00     40.00     73.68
  71     40.00   2820.00   2800.00     40.00     73.68
  70     40.00   2780.00   2760.00     40.00     73.68
  69     40.00   2740.00   2720.00     40.00     73.68
  68     40.00   2700.00   2680.00     40.00     73.68
  67     40.00   2660.00   2640.00     40.00     73.68
  66     40.00   2620.00   2600.00     40.00     73.68
  65     40.00   2580.00   2560.00     40.00     73.68
  64     40.00   2540.00   2520.00     40.00     73.68
  63     40.00   2500.00   2480.00     40.00     73.68
  62     40.00   2460.00   2440.00     40.00     73.68
  61     40.00   2420.00   2400.00     40.00     73.68
  60     40.00   2380.00   2360.00     40.00     73.68
  59     40.00   2340.00   2320.00     40.00     73.68
  58     40.00   2300.00   2280.00     40.00     73.68
  57     40.00   2260.00   2240.00     40.00     73.68
  56     40.00   2220.00   2200.00     40.00     73.68
  55     40.00   2180.00   2160.00     40.00     73.68
  54     40.00   2140.00   2120.00     40.00     73.68
  53     40.00   2100.00   2080.00     40.00     73.68
  52     40.00   2060.00   2040.00     40.00     73.68
  51     40.00   2020.00   2000.00     40.00     73.68
  50     40.00   1980.00   1960.00     40.00     73.68
  49     40.00   1940.00   1920.00     40.00     73.68
  48     40.00   1900.00   1880.00     40.00     73.68
  47     40.00   1860.00   1840.00     40.00     73.68
  46     40.00   1820.00   1800.00     40.00     73.68
  45     40.00   1780.00   1760.00     40.00     73.68
  44     40.00   1740.00   1720.00     40.00     73.68
  43     40.00   1700.00   1680.00     40.00     73.68
  42     40.00   1660.00   1640.00     40.00     73.68
  41     40.00   1620.00   1600.00     40.00     73.68
  40     40.00   1580.00   1560.00     40.00     73.68
  39     40.00   1540.00   1520.00     40.00     73.68
  38     40.00   1500.00   1480.00     40.00     73.68
  37     40.00   1460.00   1440.00     40.00     73.68
  36     40.00   1420.00   1400.00     40.00     73.68
  35     40.00   1380.00   1360.00     40.00     73.68
  34     40.00   1340.00   1320.00     40.00     73.68
  33     40.00   1300.00   1280.00     40.00     73.68
  32     40.00   1260.00   1240.00     40.00     73.68
  31     40.00   1220.00   1200.00     40.00     73.68
  30     40.00   1180.00   1160.00     40.00     73.68
  29     40.00   1140.00   1120.00     40.00     73.68
  28     40.00   1100.00   1080.00     40.00     73.68
  27     40.00   1060.00   1040.00     40.00     73.68
  26     40.00   1020.00   1000.00     40.00     73.68
  25     40.00    980.00    960.00     40.00     73.68
  24     40.00    940.00    920.00     40.00     73.68
  23     40.00    900.00    880.00     40.00     73.68
  22     40.00    860.00    840.00     40.00     73.68
  21     40.00    820.00    800.00     40.00     73.68
  20     40.00    780.00    760.00     40.00     73.68
  19     40.00    740.00    720.00     40.00     73.68
  18     40.00    700.00    680.00     40.00     73.68
  17     40.00    660.00    640.00     40.00     73.68
  16     40.00    620.00    600.00     40.00     73.68
  15     40.00    580.00    560.00     40.00     73.68
  14     40.00    540.00    520.00     40.00     73.68
  13     40.00    500.00    480.00     40.00     73.68
  12     40.00    460.00    440.00     40.00     73.68
  11     40.00    420.00    400.00     40.00     73.68
  10     40.00    380.00    360.00     40.00     73.68
   9     40.00    340.00    320.00     40.00     73.68
   8     40.00    300.00    280.00     40.00     73.68
   7     40.00    260.00    240.00     40.00     73.68
   6     40.00    220.00    200.00     40.00     73.68
   5     40.00    180.00    160.00     40.00     73.68
   4     40.00    140.00    120.00     40.00     73.68
   3     40.00    100.00     80.00     40.00     73.68
   2     40.00     60.00     40.00     40.00     73.68
   1     40.00     20.00      0.00     40.00     73.68
 &TIMER
 LTIMER =  F,
 LTIMER_PRINT =  T,
 LTIMER_WRITE =  F
 /
 &NAMTESTBED
 LTESTBED =  F,
 LTB_NUDGE =  F,
 TB_TAUNUDGE =    10800.00000000000     
 /
 &NAMDE
 SSA =   0.9990000000000000     ,
 IDE =            1,
 LAERO =  F
 /
 &NAMRADIATION
 LCNSTZENITH =  F,
 CNSTZENITH =    0.000000000000000     ,
 LCNSTALBEDO =  T,
 IOVERLAP =            2,
 INFLGLW =            2,
 ICEFLGLW =            3,
 LIQFLGLW =            1,
 INFLGSW =            2,
 ICEFLGSW =            3,
 LIQFLGSW =            1,
 OCEAN =  F,
 USERO3 =  F,
 CO2FACTOR =    1.000000000000000     ,
 DOPERPETUAL =  F,
 DOSEASONS =  T,
 IYEAR =         1992
 /
 &NAMCHEM
 LCHEM =  F,
 LCLOUDKCONST =  F,
 TNOR =            0,
 FIRSTCHEM =            1,
 LASTCHEM =            0,
 LDIUVAR =  F,
 H_REF =    12.00000000000000     ,
 LCHCONST =  F,
 T_REF =    298.0000000000000     ,
 Q_REF =   5.0000000000000001E-003,
 P_REF =    100000.0000000000     ,
 LCHMOVIE =  F,
 DTCHMOVIE =    60.00000000000000     ,
 LSEGR =  F
 /
 &NAMSURFACE
 ISURF =            3,
 TSOILAV =    0.000000000000000     ,
              0.000000000000000     ,
              0.000000000000000     ,
              0.000000000000000     ,
 TSOILDEEPAV =    0.000000000000000     ,
 PHIWAV =    0.000000000000000     ,
             0.000000000000000     ,
             0.000000000000000     ,
             0.000000000000000     ,
 ROOTFAV =    0.000000000000000     ,
              0.000000000000000     ,
              0.000000000000000     ,
              0.000000000000000     ,
 LMOSTLOCAL =  F,
 LSMOOTHFLUX =  F,
 LNEUTRAL =  F,
 Z0MAV =   -1.000000000000000     ,
 Z0HAV =   -1.000000000000000     ,
 RSISURF2 =    0.000000000000000     ,
 CSKINAV =   -1.000000000000000     ,
 LAMBDASKINAV =   -1.000000000000000     ,
 ALBEDOAV =   -1.000000000000000     ,
 QNETAV =   -1.000000000000000     ,
 CVEGAV =   -1.000000000000000     ,
 WLAV =   -1.000000000000000     ,
 RSMINAV =   -1.000000000000000     ,
 RSSOILMINAV =   -1.000000000000000     ,
 LAIAV =   -1.000000000000000     ,
 GDAV =    0.000000000000000     ,
 Z0 =   2.0000000000000001E-004,
 THLS =    299.1000000000000     ,
 PS =    101500.0000000000     ,
 USTIN =   0.2800000000000000     ,
 WTSURF =   8.0000000000000002E-003,
 WQSURF =   5.1999999999999997E-005,
 WSVSURF =    0.000000000000000     ,
              0.000000000000000     ,
              0.000000000000000     ,
              0.000000000000000     ,
              0.000000000000000     ,
              0.000000000000000     ,
              0.000000000000000     ,
              0.000000000000000     ,
              0.000000000000000     ,
              0.000000000000000     ,
              0.000000000000000     ,
              0.000000000000000     ,
              0.000000000000000     ,
              0.000000000000000     ,
              0.000000000000000     ,
              0.000000000000000     ,
              0.000000000000000     ,
              0.000000000000000     ,
              0.000000000000000     ,
              0.000000000000000     ,
              0.000000000000000     ,
              0.000000000000000     ,
              0.000000000000000     ,
              0.000000000000000     ,
              0.000000000000000     ,
              0.000000000000000     ,
              0.000000000000000     ,
              0.000000000000000     ,
              0.000000000000000     ,
              0.000000000000000     ,
              0.000000000000000     ,
              0.000000000000000     ,
              0.000000000000000     ,
              0.000000000000000     ,
              0.000000000000000     ,
              0.000000000000000     ,
              0.000000000000000     ,
              0.000000000000000     ,
              0.000000000000000     ,
              0.000000000000000     ,
              0.000000000000000     ,
              0.000000000000000     ,
              0.000000000000000     ,
              0.000000000000000     ,
              0.000000000000000     ,
              0.000000000000000     ,
              0.000000000000000     ,
              0.000000000000000     ,
              0.000000000000000     ,
              0.000000000000000     ,
              0.000000000000000     ,
              0.000000000000000     ,
              0.000000000000000     ,
              0.000000000000000     ,
              0.000000000000000     ,
              0.000000000000000     ,
              0.000000000000000     ,
              0.000000000000000     ,
              0.000000000000000     ,
              0.000000000000000     ,
              0.000000000000000     ,
              0.000000000000000     ,
              0.000000000000000     ,
              0.000000000000000     ,
              0.000000000000000     ,
              0.000000000000000     ,
              0.000000000000000     ,
              0.000000000000000     ,
              0.000000000000000     ,
              0.000000000000000     ,
              0.000000000000000     ,
              0.000000000000000     ,
              0.000000000000000     ,
              0.000000000000000     ,
              0.000000000000000     ,
              0.000000000000000     ,
              0.000000000000000     ,
              0.000000000000000     ,
              0.000000000000000     ,
              0.000000000000000     ,
              0.000000000000000     ,
              0.000000000000000     ,
              0.000000000000000     ,
              0.000000000000000     ,
              0.000000000000000     ,
              0.000000000000000     ,
              0.000000000000000     ,
              0.000000000000000     ,
              0.000000000000000     ,
              0.000000000000000     ,
              0.000000000000000     ,
              0.000000000000000     ,
              0.000000000000000     ,
              0.000000000000000     ,
              0.000000000000000     ,
              0.000000000000000     ,
              0.000000000000000     ,
              0.000000000000000     ,
              0.000000000000000     ,
              0.000000000000000     ,
 LHETERO =  F,
 XPATCHES =            2,
 YPATCHES =            1,
 LAND_USE =            0,
                       0,
                       0,
                       0,
                       0,
                       0,
                       0,
                       0,
                       0,
                       0,
                       0,
                       0,
                       0,
                       0,
                       0,
                       0,
                       0,
                       0,
                       0,
                       0,
                       0,
                       0,
                       0,
                       0,
                       0,
                       0,
                       0,
                       0,
                       0,
                       0,
                       0,
                       0,
                       0,
                       0,
                       0,
                       0,
                       0,
                       0,
                       0,
                       0,
                       0,
                       0,
                       0,
                       0,
                       0,
                       0,
                       0,
                       0,
                       0,
                       0,
                       0,
                       0,
                       0,
                       0,
                       0,
                       0,
                       0,
                       0,
                       0,
                       0,
                       0,
                       0,
                       0,
                       0,
                       0,
                       0,
                       0,
                       0,
                       0,
                       0,
                       0,
                       0,
                       0,
                       0,
                       0,
                       0,
                       0,
                       0,
                       0,
                       0,
                       0,
                       0,
                       0,
                       0,
                       0,
                       0,
                       0,
                       0,
                       0,
                       0,
                       0,
                       0,
                       0,
                       0,
                       0,
                       0,
                       0,
                       0,
                       0,
                       0,
                       0,
                       0,
                       0,
                       0,
                       0,
                       0,
                       0,
                       0,
                       0,
                       0,
                       0,
                       0,
                       0,
                       0,
                       0,
                       0,
                       0,
                       0,
                       0,
                       0,
                       0,
                       0,
                       0,
                       0,
                       0,
                       0,
                       0,
                       0,
                       0,
                       0,
                       0,
                       0,
                       0,
                       0,
                       0,
                       0,
                       0,
                       0,
                       0,
                       0,
                       0,
                       0,
                       0,
                       0,
                       0,
                       0,
                       0,
                       0,
                       0,
                       0,
                       0,
                       0,
                       0,
                       0,
                       0,
                       0,
                       0,
                       0,
                       0,
                       0,
                       0,
                       0,
                       0,
                       0,
                       0,
                       0,
                       0,
                       0,
                       0,
                       0,
                       0,
                       0,
                       0,
                       0,
                       0,
                       0,
                       0,
                       0,
                       0,
                       0,
                       0,
                       0,
                       0,
                       0,
                       0,
                       0,
                       0,
                       0,
                       0,
                       0,
                       0,
                       0,
                       0,
                       0,
                       0,
                       0,
                       0,
                       0,
                       0,
                       0,
                       0,
                       0,
                       0,
                       0,
                       0,
                       0,
                       0,
                       0,
                       0,
                       0,
                       0,
                       0,
                       0,
                       0,
                       0,
                       0,
                       0,
                       0,
                       0,
                       0,
                       0,
                       0,
                       0,
                       0,
                       0,
                       0,
                       0,
                       0,
                       0,
                       0,
                       0,
                       0,
                       0,
                       0,
                       0,
                       0,
                       0,
                       0,
                       0,
                       0,
                       0,
                       0,
                       0,
                       0,
                       0,
                       0,
                       0,
                       0,
                       0,
                       0,
                       0,
                       0,
                       0,
                       0,
                       0,
                       0,
 LOLDTABLE =  F,
 LRSAGS =  F,
 LCO2AGS =  F,
 PLANTTYPE =            3,
 LRELAXGC =  F,
 KGC =   1.1299999999999999E-003,
 LRELAXCI =  F,
 KCI =   1.1299999999999999E-003,
 PHI =   0.4720000000000000     ,
 PHIFC =   0.3230000000000000     ,
 PHIWP =   0.1710000000000000     ,
 R10 =   0.2300000000000000     ,
 T2GM =    301.0000000000000     ,
 Q10GM =    2.000000000000000     ,
 LSPLITLEAF =  F,
 I_EXPEMIS =           -1,
 EXPEMIS0 =    0.000000000000000     ,
 EXPEMIS1 =    0.000000000000000     ,
 EXPEMIS2 =    10800.00000000000     
 /
 WARNING: z0m and z0h not defined, set equal to z0
 &NAMSUBGRID
 LDELTA =  F,
 LMASON =  F,
 CF =    2.500000000000000     ,
 CN =   0.7600000000000000     ,
 RIGC =   0.2500000000000000     ,
 PRANDTL =   0.3333333333333333     ,
 LSMAGORINSKY =  F,
 CS =   -1.000000000000000     ,
 NMASON =    2.000000000000000     ,
 SGS_SURFACE_FIX =  F,
 CH1 =    1.000000000000000     ,
 LANISOTROP =  F
 /
 cf    =     2.500000000000000     
 cm    =    0.1178925504384410     
 ch    =     3.000000000000000     
 ch1   =     1.000000000000000     
 ch2   =     2.000000000000000     
 ceps  =    0.7446738141842472     
 ceps1 =    0.2042842113997305     
 ceps2 =    0.5403896027845166     
 cs    =    -1.000000000000000     
 Rigc  =    0.2500000000000000     
 &NAMMICROPHYSICS
 IMICRO =            0,
 L_SB =  T,
 L_RAIN =  T,
 L_SEDC =  T,
 L_MUR_CST =  F,
 L_BERRY =  T,
 L_GRAUPEL =  T,
 L_WARM =  F,
 MUR_CST =    5.000000000000000     ,
 NC_0 =    70000000.00000000     ,
 SIG_G =    1.340000000000000     ,
 SIG_GR =    1.500000000000000     ,
 COURANTP =    1.000000000000000     
 /
# #Bomex 10-10-2001                                                             
 height    thl      qt         u      v     e12
 3180.0   312.5  0.2784E-02   -4.3    0.0    0.0
 3140.0   312.4  0.2832E-02   -4.4    0.0    0.0
 3100.0   312.2  0.2880E-02   -4.4    0.0    0.0
 3060.0   312.1  0.2928E-02   -4.5    0.0    0.0
 3020.0   311.9  0.2976E-02   -4.6    0.0    0.0
 2980.0   311.8  0.3024E-02   -4.6    0.0    0.0
 2940.0   311.6  0.3072E-02   -4.7    0.0    0.0
 2900.0   311.5  0.3120E-02   -4.8    0.0    0.0
 2860.0   311.3  0.3168E-02   -4.9    0.0    0.0
 2820.0   311.2  0.3216E-02   -4.9    0.0    0.1
 2780.0   311.0  0.3264E-02   -5.0    0.0    0.1
 2740.0   310.9  0.3312E-02   -5.1    0.0    0.1
 2700.0   310.8  0.3360E-02   -5.2    0.0    0.1
 2660.0   310.6  0.3408E-02   -5.2    0.0    0.1
 2620.0   310.5  0.3456E-02   -5.3    0.0    0.1
 2580.0   310.3  0.3504E-02   -5.4    0.0    0.1
 2540.0   310.2  0.3552E-02   -5.4    0.0    0.2
 2500.0   310.0  0.3600E-02   -5.5    0.0    0.2
 2460.0   309.9  0.3648E-02   -5.6    0.0    0.2
 2420.0   309.7  0.3696E-02   -5.7    0.0    0.2
 2380.0   309.6  0.3744E-02   -5.7    0.0    0.2
 2340.0   309.4  0.3792E-02   -5.8    0.0    0.2
 2300.0   309.3  0.3840E-02   -5.9    0.0    0.2
 2260.0   309.1  0.3888E-02   -5.9    0.0    0.2
 2220.0   309.0  0.3936E-02   -6.0    0.0    0.3
 2180.0   308.9  0.3984E-02   -6.1    0.0    0.3
 2140.0   308.7  0.4032E-02   -6.2    0.0    0.3
 2100.0   308.6  0.4080E-02   -6.2    0.0    0.3
 2060.0   308.4  0.4128E-02   -6.3    0.0    0.3
 2020.0   308.3  0.4176E-02   -6.4    0.0    0.3
 1980.0   308.0  0.4450E-02   -6.4    0.0    0.3
 1940.0   307.5  0.4950E-02   -6.5    0.0    0.4
 1900.0   307.1  0.5450E-02   -6.6    0.0    0.4