 DALES 4.4 git: e0e72d-dirty
 namoptions-144.001                                                                                                                                                                                                                                              
&RUN
 IEXPNR=1          ,
 LWARMSTART=F,
 STARTFILE="initd001h00mx000y000.001                          ",
 LTOTRUNTIME=F,
 RUNTIME=  10000.000000000000     ,
 DTMAX=  20.000000000000000     ,
 WCTIME=  8640000.0000000000     ,
 DTAV_GLOB=  60.000000000000000     ,
 TIMEAV_GLOB=  3600.0000000000000     ,
 TRESTART=  300.00000000000000     ,
 IRANDOM=3995       ,
 RANDTHL= 0.10000000000000001     ,
 RANDQT=  2.5000000000000001E-005,
 KRAND=2147483647 ,
 NSV=2          ,
 COURANT= -1.0000000000000000     ,
 PECLET= 0.14999999999999999     ,
 LADAPTIVE=T,
 AUTHOR="                                                                                ",
 KRANDUMIN=1          ,
 KRANDUMAX=0          ,
 RANDU= 0.50000000000000000     ,
 NPROCX=0          ,
 NPROCY=0          ,
 LOUTDIRS=F,
 /
&DOMAIN
 ITOT=144        ,
 JTOT=144        ,
 KMAX=126        ,
 XSIZE=  14400.000000000000     ,
 YSIZE=  14400.000000000000     ,
 XLAT=  18.000000000000000     ,
 XLON=  298.50000000000000     ,
 XYEAR=0          ,
 XDAY=  0.0000000000000000     ,
 XTIME=  0.0000000000000000     ,
 KSP=-1         ,
 /
&PHYSICS
 Z0=  1.6000000000000001E-004,
 USTIN= 0.32000000000000001     ,
 WTSURF= -1.0000000000000000E+020,
 WQSURF= -1.0000000000000000E+020,
 WSVSURF= 100*0.0000000000000000       ,
 PS=  101540.00000000000     ,
 THLS=  298.50000000000000     ,
 LMOIST=T,
 ISURF=2          ,
 CHI_HALF= 0.50000000000000000     ,
 LCORIOL=T,
 LPRESSGRAD=T,
 IGRW_DAMP=2          ,
 GEODAMPTIME=  7200.0000000000000     ,
 LMOMSUBS=F,
 LTIMEDEP=F,
 LTIMEDEPUV=F,
 LTIMEDEPSV=F,
 NTIMEDEP=100        ,
 IRAD=0          ,
 TIMERAD=  2.0000000000000000     ,
 IRADIATION=0          ,
 RAD_LS=T,
 RAD_LONGW=T,
 RAD_SHORTW=T,
 RAD_SMOKE=F,
 USEMCICA=T,
 RKA=  130.00000000000000     ,
 DLWTOP=  74.000000000000000     ,
 DLWBOT=  0.0000000000000000     ,
 SW0=  1368.2200000000000     ,
 GC= 0.84999999999999998     ,
 REFF=  1.0000000000000001E-005,
 ISVSMOKE=1          ,
 LFORCE_USER=F,
 LCLOUDSHADING=F,
 LRIGIDLID=F,
 UNUDGE=  1.0000000000000000     ,
 LFAST_THERMO=F,
 /
&DYNAMICS
 LLSADV=F,
 LQLNR=F,
 LAMBDA_CRIT=  100.00000000000000     ,
 CU= -5.0000000000000000     ,
 CV= -4.0000000000000000     ,
 IBAS_PRF=3          ,
 IADV_MOM=2          ,
 IADV_TKE=2          ,
 IADV_THL=2          ,
 IADV_QT=2          ,
 IADV_SV=7          , 99*-1         ,
 LNOCLOUDS=F,
 /
&SOLVER
 SOLVER_ID=0          ,
 MAXITER=10000      ,
 TOLERANCE=  1.0000000000000000E-008,
 N_PRE=1          ,
 N_POST=1          ,
 PRECOND=1          ,
 /
 MPI mesh nprocx, nprocy:            4           2
 lev    dz     zf      zh       dzh    delta
 127     40.00   5060.00   5040.00     40.00     73.68
 126     40.00   5020.00   5000.00     40.00     73.68
 125     40.00   4980.00   4960.00     40.00     73.68
 124     40.00   4940.00   4920.00     40.00     73.68
 123     40.00   4900.00   4880.00     40.00     73.68
 122     40.00   4860.00   4840.00     40.00     73.68
 121     40.00   4820.00   4800.00     40.00     73.68
 120     40.00   4780.00   4760.00     40.00     73.68
 119     40.00   4740.00   4720.00     40.00     73.68
 118     40.00   4700.00   4680.00     40.00     73.68
 117     40.00   4660.00   4640.00     40.00     73.68
 116     40.00   4620.00   4600.00     40.00     73.68
 115     40.00   4580.00   4560.00     40.00     73.68
 114     40.00   4540.00   4520.00     40.00     73.68
 113     40.00   4500.00   4480.00     40.00     73.68
 112     40.00   4460.00   4440.00     40.00     73.68
 111     40.00   4420.00   4400.00     40.00     73.68
 110     40.00   4380.00   4360.00     40.00     73.68
 109     40.00   4340.00   4320.00     40.00     73.68
 108     40.00   4300.00   4280.00     40.00     73.68
 107     40.00   4260.00   4240.00     40.00     73.68
 106     40.00   4220.00   4200.00     40.00     73.68
 105     40.00   4180.00   4160.00     40.00     73.68
 104     40.00   4140.00   4120.00     40.00     73.68
 103     40.00   4100.00   4080.00     40.00     73.68
 102     40.00   4060.00   4040.00     40.00     73.68
 101     40.00   4020.00   4000.00     40.00     73.68
 100     40.00   3980.00   3960.00     40.00     73.68
  99     40.00   3940.00   3920.00     40.00     73.68
  98     40.00   3900.00   3880.00     40.00     73.68
  97     40.00   3860.00   3840.00     40.00     73.68
  96     40.00   3820.00   3800.00     40.00     73.68
  95     40.00   3780.00   3760.00     40.00     73.68
  94     40.00   3740.00   3720.00     40.00     73.68
  93     40.00   3700.00   3680.00     40.00     73.68
  92     40.00   3660.00   3640.00     40.00     73.68
  91     40.00   3620.00   3600.00     40.00     73.68
  90     40.00   3580.00   3560.00     40.00     73.68
  89     40.00   3540.00   3520.00     40.00     73.68
  88     40.00   3500.00   3480.00     40.00     73.68
  87     40.00   3460.00   3440.00     40.00     73.68
  86     40.00   3420.00   3400.00     40.00     73.68
  85     40.00   3380.00   3360.00     40.00     73.68
  84     40.00   3340.00   3320.00     40.00     73.68
  83     40.00   3300.00   3280.00     40.00     73.68
  82     40.00   3260.00   3240.00     40.00     73.68
  81     40.00   3220.00   3200.00     40.00     73.68
  80     40.00   3180.00   3160.00     40.00     73.68
  79     40.00   3140.00   3120.00     40.00     73.68
  78     40.00   3100.00   3080.00     40.00     73.68
  77     40.00   3060.00   3040.00     40.00     73.68
  76     40.00   3020.00   3000.00     40.00     73.68
  75     40.00   2980.00   2960.00     40.00     73.68
  74     40.00   2940.00   2920.00     40.00     73.68
  73     40.00   2900.00   2880.00     40.00     73.68
  72     40.00   2860.00   2840.00     40.00     73.68
  71     40.00   2820.00   2800.00     40.00     73.68
  70     40.00   2780.00   2760.00     40.00     73.68
  69     40.00   2740.00   2720.00     40.00     73.68
  68     40.00   2700.00   2680.00     40.00     73.68
  67     40.00   2660.00   2640.00     40.00     73.68
  66     40.00   2620.00   2600.00     40.00     73.68
  65     40.00   2580.00   2560.00     40.00     73.68
  64     40.00   2540.00   2520.00     40.00     73.68
  63     40.00   2500.00   2480.00     40.00     73.68
  62     40.00   2460.00   2440.00     40.00     73.68
  61     40.00   2420.00   2400.00     40.00     73.68
  60     40.00   2380.00   2360.00     40.00     73.68
  59     40.00   2340.00   2320.00     40.00     73.68
  58     40.00   2300.00   2280.00     40.00     73.68
  57     40.00   2260.00   2240.00     40.00     73.68
  56     40.00   2220.00   2200.00     40.00     73.68
  55     40.00   2180.00   2160.00     40.00     73.68
  54     40.00   2140.00   2120.00     40.00     73.68
  53     40.00   2100.00   2080.00     40.00     73.68
  52     40.00   2060.00   2040.00     40.00     73.68
  51     40.00   2020.00   2000.00     40.00     73.68
  50     40.00   1980.00   1960.00     40.00     73.68
  49     40.00   1940.00   1920.00     40.00     73.68
  48     40.00   1900.00   1880.00     40.00     73.68
  47     40.00   1860.00   1840.00     40.00     73.68
  46     40.00   1820.00   1800.00     40.00     73.68
  45     40.00   1780.00   1760.00     40.00     73.68
  44     40.00   1740.00   1720.00     40.00     73.68
  43     40.00   1700.00   1680.00     40.00     73.68
  42     40.00   1660.00   1640.00     40.00     73.68
  41     40.00   1620.00   1600.00     40.00     73.68
  40     40.00   1580.00   1560.00     40.00     73.68
  39     40.00   1540.00   1520.00     40.00     73.68
  38     40.00   1500.00   1480.00     40.00     73.68
  37     40.00   1460.00   1440.00     40.00     73.68
  36     40.00   1420.00   1400.00     40.00     73.68
  35     40.00   1380.00   1360.00     40.00     73.68
  34     40.00   1340.00   1320.00     40.00     73.68
  33     40.00   1300.00   1280.00     40.00     73.68
  32     40.00   1260.00   1240.00     40.00     73.68
  31     40.00   1220.00   1200.00     40.00     73.68
  30     40.00   1180.00   1160.00     40.00     73.68
  29     40.00   1140.00   1120.00     40.00     73.68
  28     40.00   1100.00   1080.00     40.00     73.68
  27     40.00   1060.00   1040.00     40.00     73.68
  26     40.00   1020.00   1000.00     40.00     73.68
  25     40.00    980.00    960.00     40.00     73.68
  24     40.00    940.00    920.00     40.00     73.68
  23     40.00    900.00    880.00     40.00     73.68
  22     40.00    860.00    840.00     40.00     73.68
  21     40.00    820.00    800.00     40.00     73.68
  20     40.00    780.00    760.00     40.00     73.68
  19     40.00    740.00    720.00     40.00     73.68
  18     40.00    700.00    680.00     40.00     73.68
  17     40.00    660.00    640.00     40.00     73.68
  16     40.00    620.00    600.00     40.00     73.68
  15     40.00    580.00    560.00     40.00     73.68
  14     40.00    540.00    520.00     40.00     73.68
  13     40.00    500.00    480.00     40.00     73.68
  12     40.00    460.00    440.00     40.00     73.68
  11     40.00    420.00    400.00     40.00     73.68
  10     40.00    380.00    360.00     40.00     73.68
   9     40.00    340.00    320.00     40.00     73.68
   8     40.00    300.00    280.00     40.00     73.68
   7     40.00    260.00    240.00     40.00     73.68
   6     40.00    220.00    200.00     40.00     73.68
   5     40.00    180.00    160.00     40.00     73.68
   4     40.00    140.00    120.00     40.00     73.68
   3     40.00    100.00     80.00     40.00     73.68
   2     40.00     60.00     40.00     40.00     73.68
   1     40.00     20.00      0.00     40.00     73.68
&NAMTESTBED
 LTESTBED=F,
 LTB_NUDGE=F,
 TB_TAUNUDGE=  10800.000000000000     ,
 /
&NAMDE
 SSA= 0.99900000000000000     ,
 IDE=1          ,
 LAERO=F,
 /
&NAMRADIATION
 LCNSTZENITH=F,
 CNSTZENITH=  0.0000000000000000     ,
 LCNSTALBEDO=T,
 IOVERLAP=2          ,
 INFLGLW=2          ,
 ICEFLGLW=3          ,
 LIQFLGLW=1          ,
 INFLGSW=2          ,
 ICEFLGSW=3          ,
 LIQFLGSW=1          ,
 OCEAN=F,
 USERO3=F,
 CO2FACTOR=  1.0000000000000000     ,
 DOPERPETUAL=F,
 DOSEASONS=T,
 IYEAR=1992       ,
 /
 WARNING: The use of irad is deprecated. Please use the iradiation switch
&NAMCHEM
 LCHEM=F,
 LCLOUDKCONST=F,
 TNOR=0          ,
 FIRSTCHEM=1          ,
 LASTCHEM=2          ,
 LDIUVAR=F,
 H_REF=  12.000000000000000     ,
 LCHCONST=F,
 T_REF=  298.00000000000000     ,
 Q_REF=  5.0000000000000001E-003,
 P_REF=  100000.00000000000     ,
 LCHMOVIE=F,
 DTCHMOVIE=  60.000000000000000     ,
 LSEGR=F,
 /
&NAMSURFACE
 ISURF=2          ,
 TSOILAV= 4*0.0000000000000000       ,
 TSOILDEEPAV=  0.0000000000000000     ,
 PHIWAV= 4*0.0000000000000000       ,
 ROOTFAV= 4*0.0000000000000000       ,
 LMOSTLOCAL=F,
 LSMOOTHFLUX=F,
 LNEUTRAL=F,
 Z0MAV=  1.6000000000000001E-004,
 Z0HAV=  3.1999999999999999E-005,
 RSISURF2=  0.0000000000000000     ,
 CSKINAV= -1.0000000000000000     ,
 LAMBDASKINAV= -1.0000000000000000     ,
 ALBEDOAV= -1.0000000000000000     ,
 QNETAV= -1.0000000000000000     ,
 CVEGAV= -1.0000000000000000     ,
 WLAV= -1.0000000000000000     ,
 RSMINAV= -1.0000000000000000     ,
 RSSOILMINAV= -1.0000000000000000     ,
 LAIAV= -1.0000000000000000     ,
 GDAV=  0.0000000000000000     ,
 Z0=  1.6000000000000001E-004,
 THLS=  298.50000000000000     ,
 PS=  101540.00000000000     ,
 USTIN= 0.32000000000000001     ,
 WTSURF= -1.0000000000000000E+020,
 WQSURF= -1.0000000000000000E+020,
 WSVSURF= 100*0.0000000000000000       ,
 LHETERO=F,
 XPATCHES=2          ,
 YPATCHES=1          ,
 LAND_USE= 256*0          ,
 LOLDTABLE=F,
 LRSAGS=F,
 LCO2AGS=F,
 PLANTTYPE=3          ,
 LRELAXGC=F,
 KGC=  1.1299999999999999E-003,
 LRELAXCI=F,
 KCI=  1.1299999999999999E-003,
 PHI= 0.47199999999999998     ,
 PHIFC= 0.32300000000000001     ,
 PHIWP= 0.17100000000000001     ,
 R10= 0.23000000000000001     ,
 T2GM=  301.00000000000000     ,
 Q10GM=  2.0000000000000000     ,
 LSPLITLEAF=F,
 I_EXPEMIS=-1         ,
 EXPEMIS0=  0.0000000000000000     ,
 EXPEMIS1=  0.0000000000000000     ,
 EXPEMIS2=  10800.000000000000     ,
 /
&NAMSUBGRID
 LDELTA=F,
 LMASON=F,
 CF=  2.5000000000000000     ,
 CN= 0.76000000000000001     ,
 RIGC= 0.25000000000000000     ,
 PRANDTL= 0.33333333333333331     ,
 LSMAGORINSKY=F,
 CS= -1.0000000000000000     ,
 NMASON=  2.0000000000000000     ,
 SGS_SURFACE_FIX=F,
 CH1=  1.0000000000000000     ,
 LANISOTROP=F,
 /
 cf    =    2.5000000000000000     
 cm    =   0.11789255043844099     
 ch    =    3.0000000000000000     
 ch1   =    1.0000000000000000     
 ch2   =    2.0000000000000000     
 ceps  =   0.74467381418424716     
 ceps1 =   0.20428421139973055     
 ceps2 =   0.54038960278451664     
 cs    =   -1.0000000000000000     
 Rigc  =   0.25000000000000000     
&NAMMICROPHYSICS
 IMICRO=2          ,
 L_SB=T,
 L_RAIN=T,
 L_SEDC=T,
 L_MUR_CST=F,
 L_BERRY=T,
 L_GRAUPEL=T,
 L_WARM=F,
 MUR_CST=  5.0000000000000000     ,
 NC_0=  70000000.000000000     ,
 SIG_G=  1.3400000000000001     ,
 SIG_GR=  1.5000000000000000     ,
 COURANTP=  1.0000000000000000     ,
 /
 #  input file Profiles - RICO Trade Cu Period (12/16-01/08)                    
 height    thl      qt         u      v     e12
 5020.0   323.0  0.9730E-03    0.1   -3.8    0.0
 4980.0   322.7  0.1005E-02    0.1   -3.8    0.0
 4940.0   322.5  0.1038E-02   -0.0   -3.8    0.0
 4900.0   322.3  0.1070E-02   -0.1   -3.8    0.0
 4860.0   322.0  0.1103E-02   -0.2   -3.8    0.0
 4820.0   321.8  0.1135E-02   -0.3   -3.8    0.0
 4780.0   321.6  0.1168E-02   -0.3   -3.8    0.0
 4740.0   321.3  0.1200E-02   -0.4   -3.8    0.0
 4700.0   321.1  0.1232E-02   -0.5   -3.8    0.0
 4660.0   320.9  0.1265E-02   -0.6   -3.8    0.0
 4620.0   320.6  0.1297E-02   -0.7   -3.8    0.0
 4580.0   320.4  0.1330E-02   -0.7   -3.8    0.0
 4540.0   320.2  0.1362E-02   -0.8   -3.8    0.0
 4500.0   319.9  0.1395E-02   -0.9   -3.8    0.0
 4460.0   319.7  0.1427E-02   -1.0   -3.8    0.0
 4420.0   319.5  0.1460E-02   -1.1   -3.8    0.0
 4380.0   319.2  0.1492E-02   -1.1   -3.8    0.0
 4340.0   319.0  0.1524E-02   -1.2   -3.8    0.0
 4300.0   318.8  0.1557E-02   -1.3   -3.8    0.0
 4260.0   318.5  0.1589E-02   -1.4   -3.8    0.0
 4220.0   318.3  0.1622E-02   -1.5   -3.8    0.0
 4180.0   318.1  0.1654E-02   -1.5   -3.8    0.0
 4140.0   317.8  0.1687E-02   -1.6   -3.8    0.0
 4100.0   317.6  0.1719E-02   -1.7   -3.8    0.0
 4060.0   317.4  0.1751E-02   -1.8   -3.8    0.0
 4020.0   317.1  0.1784E-02   -1.9   -3.8    0.0
 3980.0   316.9  0.1816E-02   -1.9   -3.8    0.0
 3940.0   316.6  0.1849E-02   -2.0   -3.8    0.0
 3900.0   316.4  0.1881E-02   -2.1   -3.8    0.0
 3860.0   316.2  0.1914E-02   -2.2   -3.8    0.0
 3820.0   315.9  0.1946E-02   -2.3   -3.8    0.0
 3780.0   315.7  0.1978E-02   -2.3   -3.8    0.1
 3740.0   315.5  0.2011E-02   -2.4   -3.8    0.1
 3700.0   315.2  0.2043E-02   -2.5   -3.8    0.1
 3660.0   315.0  0.2076E-02   -2.6   -3.8    0.1
 3620.0   314.8  0.2108E-02   -2.7   -3.8    0.1
 3580.0   314.5  0.2141E-02   -2.7   -3.8    0.1
 3540.0   314.3  0.2173E-02   -2.8   -3.8    0.1
 3500.0   314.1  0.2205E-02   -2.9   -3.8    0.1
 3460.0   313.8  0.2238E-02   -3.0   -3.8    0.1
 3420.0   313.6  0.2270E-02   -3.1   -3.8    0.1
 3380.0   313.4  0.2303E-02   -3.1   -3.8    0.2
 3340.0   313.1  0.2335E-02   -3.2   -3.8    0.2
 3300.0   312.9  0.2368E-02   -3.3   -3.8    0.2
 3260.0   312.7  0.2400E-02   -3.4   -3.8    0.2
 3220.0   312.4  0.2581E-02   -3.5   -3.8    0.2
 3180.0   312.2  0.2762E-02   -3.5   -3.8    0.2
 3140.0   312.0  0.2943E-02   -3.6   -3.8    0.2
 3100.0   311.7  0.3124E-02   -3.7   -3.8    0.2
 3060.0   311.5  0.3305E-02   -3.8   -3.8    0.2
 3020.0   311.3  0.3486E-02   -3.9   -3.8    0.2
 2980.0   311.0  0.3667E-02   -3.9   -3.8    0.3
 2940.0   310.8  0.3848E-02   -4.0   -3.8    0.3
 2900.0   310.6  0.4029E-02   -4.1   -3.8    0.3
 2860.0   310.3  0.4209E-02   -4.2   -3.8    0.3
 2820.0   310.1  0.4391E-02   -4.3   -3.8    0.3
 2780.0   309.9  0.4571E-02   -4.3   -3.8    0.3
 2740.0   309.6  0.4752E-02   -4.4   -3.8    0.3
 2700.0   309.4  0.4933E-02   -4.5   -3.8    0.3
 2660.0   309.1  0.5114E-02   -4.6   -3.8    0.3
 2620.0   308.9  0.5295E-02   -4.7   -3.8    0.3
 2580.0   308.7  0.5476E-02   -4.7   -3.8    0.4
 2540.0   308.4  0.5657E-02   -4.8   -3.8    0.4
 2500.0   308.2  0.5838E-02   -4.9   -3.8    0.4
 2460.0   308.0  0.6019E-02   -5.0   -3.8    0.4
 2420.0   307.7  0.6200E-02   -5.1   -3.8    0.4
 2380.0   307.5  0.6381E-02   -5.1   -3.8    0.4
 2340.0   307.3  0.6562E-02   -5.2   -3.8    0.4
 2300.0   307.0  0.6743E-02   -5.3   -3.8    0.4
 2260.0   306.8  0.6924E-02   -5.4   -3.8    0.4
 2220.0   306.6  0.7105E-02   -5.5   -3.8    0.4
 2180.0   306.3  0.7286E-02   -5.5   -3.8    0.5
 2140.0   306.1  0.7467E-02   -5.6   -3.8    0.5
 2100.0   305.9  0.7648E-02   -5.7   -3.8    0.5
 2060.0   305.6  0.7829E-02   -5.8   -3.8    0.5
 2020.0   305.4  0.8009E-02   -5.9   -3.8    0.5
 1980.0   305.2  0.8190E-02   -5.9   -3.8    0.5
 1940.0   304.9  0.8371E-02   -6.0   -3.8    0.5
 1900.0   304.7  0.8552E-02   -6.1   -3.8    0.5
 1860.0   304.5  0.8733E-02   -6.2   -3.8    0.5
 1820.0   304.2  0.8914E-02   -6.3   -3.8    0.5
 1780.0   304.0  0.9095E-02   -6.3   -3.8    0.6
 1740.0   303.8  0.9276E-02   -6.4   -3.8    0.6
 1700.0   303.5  0.9457E-02   -6.5   -3.8    0.6
 1660.0   303.3  0.9638E-02   -6.6   -3.8    0.6
 1620.0   303.1  0.9819E-02   -6.7   -3.8    0.6
 1580.0   302.8  0.1000E-01   -6.7   -3.8    0.6
 1540.0   302.6  0.1018E-01   -6.8   -3.8    0.6
 1500.0   302.4  0.1036E-01   -6.9   -3.8    0.6
 1460.0   302.1  0.1054E-01   -7.0   -3.8    0.6
 1420.0   301.9  0.1072E-01   -7.1   -3.8    0.6
 1380.0   301.6  0.1090E-01   -7.1   -3.8    0.7
 1340.0   301.4  0.1109E-01   -7.2   -3.8    0.7
 1300.0   301.2  0.1127E-01   -7.3   -3.8    0.7
 1260.0   300.9  0.1145E-01   -7.4   -3.8    0.7
 1220.0   300.7  0.1163E-01   -7.5   -3.8    0.7
 1180.0   300.5  0.1181E-01   -7.5   -3.8    0.7
 1140.0   300.2  0.1199E-01   -7.6   -3.8    0.7
 1100.0   300.0  0.1217E-01   -7.7   -3.8    0.7
 1060.0   299.8  0.1235E-01   -7.8   -3.8    0.7
 1020.0   299.5  0.1253E-01   -7.9   -3.8    0.7
  980.0   299.3  0.1271E-01   -7.9   -3.8    0.8
  940.0   299.1  0.1290E-01   -8.0   -3.8    0.8
  900.0   298.8  0.1308E-01   -8.1   -3.8    0.8
  860.0   298.6  0.1326E-01   -8.2   -3.8    0.8
  820.0   298.4  0.1344E-01   -8.3   -3.8    0.8
  780.0   298.1  0.1362E-01   -8.3   -3.8    0.8
  740.0   297.9  0.1380E-01   -8.4   -3.8    0.8
  700.0   297.9  0.1392E-01   -8.5   -3.8    0.8
  660.0   297.9  0.1404E-01   -8.6   -3.8    0.8
  620.0   297.9  0.1416E-01   -8.7   -3.8    0.8
  580.0   297.9  0.1428E-01   -8.7   -3.8    0.9
  540.0   297.9  0.1439E-01   -8.8   -3.8    0.9
  500.0   297.9  0.1451E-01   -8.9   -3.8    0.9
  460.0   297.9  0.1463E-01   -9.0   -3.8    0.9
  420.0   297.9  0.1475E-01   -9.1   -3.8    0.9
  380.0   297.9  0.1487E-01   -9.1   -3.8    0.9
  340.0   297.9  0.1499E-01   -9.2   -3.8    0.9
  300.0   297.9  0.1511E-01   -9.3   -3.8    0.9
  260.0   297.9  0.1523E-01   -9.4   -3.8    0.9
  220.0   297.9  0.1535E-01   -9.5   -3.8    0.9
  180.0   297.9  0.1546E-01   -9.5   -3.8    1.0
  140.0   297.9  0.1558E-01   -9.6   -3.8    1.0
  100.0   297.9  0.1570E-01   -9.7   -3.8    1.0
   60.0   297.9  0.1582E-01   -9.8   -3.8    1.0
   20.0   297.9  0.1594E-01   -9.9   -3.8    1.0
 e12 value is zero (or less) in prof.inp
 height   sv(1) --------- sv(nsv) 
   5020.0000000000000        0.0000000000000000        0.0000000000000000     
   4980.0000000000000        0.0000000000000000        0.0000000000000000     
   4940.0000000000000        0.0000000000000000        0.0000000000000000     
   4900.0000000000000        0.0000000000000000        0.0000000000000000     
   4860.0000000000000        0.0000000000000000        0.0000000000000000     
   4820.0000000000000        0.0000000000000000        0.0000000000000000     
   4780.0000000000000        0.0000000000000000        0.0000000000000000     
   4740.0000000000000        0.0000000000000000        0.0000000000000000     
   4700.0000000000000        0.0000000000000000        0.0000000000000000     
   4660.0000000000000        0.0000000000000000        0.0000000000000000     
   4620.0000000000000        0.0000000000000000        0.0000000000000000     
   4580.0000000000000        0.0000000000000000        0.0000000000000000     
   4540.0000000000000        0.0000000000000000        0.0000000000000000     
   4500.0000000000000        0.0000000000000000        0.0000000000000000     
   4460.0000000000000        0.0000000000000000        0.0000000000000000     
   4420.0000000000000        0.0000000000000000        0.0000000000000000     
   4380.0000000000000        0.0000000000000000        0.0000000000000000     
   4340.0000000000000        0.0000000000000000        0.0000000000000000     
   4300.0000000000000        0.0000000000000000        0.0000000000000000     
   4260.0000000000000        0.0000000000000000        0.0000000000000000     
   4220.0000000000000        0.0000000000000000        0.0000000000000000     
   4180.0000000000000        0.0000000000000000        0.0000000000000000     
   4140.0000000000000        0.0000000000000000        0.0000000000000000     
   4100.0000000000000        0.0000000000000000        0.0000000000000000     
   4060.0000000000000        0.0000000000000000        0.0000000000000000     
   4020.0000000000000        0.0000000000000000        0.0000000000000000     
   3980.0000000000000        0.0000000000000000        0.0000000000000000     
   3940.0000000000000        0.0000000000000000        0.0000000000000000     
   3900.0000000000000        0.0000000000000000        0.0000000000000000     
   3860.0000000000000        0.0000000000000000        0.0000000000000000     
   3820.0000000000000        0.0000000000000000        0.0000000000000000     
   3780.0000000000000        0.0000000000000000        0.0000000000000000     
   3740.0000000000000        0.0000000000000000        0.0000000000000000     
   3700.0000000000000        0.0000000000000000        0.0000000000000000     
   3660.0000000000000        0.0000000000000000        0.0000000000000000     
   3620.0000000000000        0.0000000000000000        0.0000000000000000     
   3580.0000000000000        0.0000000000000000        0.0000000000000000     
   3540.0000000000000        0.0000000000000000        0.0000000000000000     
   3500.0000000000000        0.0000000000000000        0.0000000000000000     
   3460.0000000000000        0.0000000000000000        0.0000000000000000     
   3420.0000000000000        0.0000000000000000        0.0000000000000000     
   3380.0000000000000        0.0000000000000000        0.0000000000000000     
   3340.0000000000000        0.0000000000000000        0.0000000000000000     
   3300.0000000000000        0.0000000000000000        0.0000000000000000     
   3260.0000000000000        0.0000000000000000        0.0000000000000000     
   3220.0000000000000        0.0000000000000000        0.0000000000000000     
   3180.0000000000000        0.0000000000000000        0.0000000000000000     
   3140.0000000000000        0.0000000000000000        0.0000000000000000     
   3100.0000000000000        0.0000000000000000        0.0000000000000000     
   3060.0000000000000        0.0000000000000000        0.0000000000000000     
   3020.0000000000000        0.0000000000000000        0.0000000000000000     
   2980.0000000000000        0.0000000000000000        0.0000000000000000     
   2940.0000000000000        0.0000000000000000        0.0000000000000000     
   2900.0000000000000        0.0000000000000000        0.0000000000000000     
   2860.0000000000000        0.0000000000000000        0.0000000000000000     
   2820.0000000000000        0.0000000000000000        0.0000000000000000     
   2780.0000000000000        0.0000000000000000        0.0000000000000000     
   2740.0000000000000        0.0000000000000000        0.0000000000000000     
   2700.0000000000000        0.0000000000000000        0.0000000000000000     
   2660.0000000000000        0.0000000000000000        0.0000000000000000     
   2620.0000000000000        0.0000000000000000        0.0000000000000000     
   2580.0000000000000        0.0000000000000000        0.0000000000000000     
   2540.0000000000000        0.0000000000000000        0.0000000000000000     
   2500.0000000000000        0.0000000000000000        0.0000000000000000     
   2460.0000000000000        0.0000000000000000        0.0000000000000000     
   2420.0000000000000        0.0000000000000000        0.0000000000000000     
   2380.0000000000000        0.0000000000000000        0.0000000000000000     
   2340.0000000000000        0.0000000000000000        0.0000000000000000     
   2300.0000000000000        0.0000000000000000        0.0000000000000000     
   2260.0000000000000        0.0000000000000000        0.0000000000000000     
   2220.0000000000000        0.0000000000000000        0.0000000000000000     
   2180.0000000000000        0.0000000000000000        0.0000000000000000     
   2140.0000000000000        0.0000000000000000        0.0000000000000000     
   2100.0000000000000        0.0000000000000000        0.0000000000000000     
   2060.0000000000000        0.0000000000000000        0.0000000000000000     
   2020.0000000000000        0.0000000000000000        0.0000000000000000     
   1980.0000000000000        0.0000000000000000        0.0000000000000000     
   1940.0000000000000        0.0000000000000000        0.0000000000000000     
   1900.0000000000000        0.0000000000000000        0.0000000000000000     
   1860.0000000000000        0.0000000000000000        0.0000000000000000     
   1820.0000000000000        0.0000000000000000        0.0000000000000000     
   1780.0000000000000        0.0000000000000000        0.0000000000000000     
   1740.0000000000000        0.0000000000000000        0.0000000000000000     
   1700.0000000000000        0.0000000000000000        0.0000000000000000     
   1660.0000000000000        0.0000000000000000        0.0000000000000000     
   1620.0000000000000        0.0000000000000000        0.0000000000000000     
   1580.0000000000000        0.0000000000000000        0.0000000000000000     
   1540.0000000000000        0.0000000000000000        0.0000000000000000     
   1500.0000000000000        0.0000000000000000        0.0000000000000000     
   1460.0000000000000        0.0000000000000000        0.0000000000000000     
   1420.0000000000000        0.0000000000000000        0.0000000000000000     
   1380.0000000000000        0.0000000000000000        0.0000000000000000     
   1340.0000000000000        0.0000000000000000        0.0000000000000000     
   1300.0000000000000        0.0000000000000000        0.0000000000000000     
   1260.0000000000000        0.0000000000000000        0.0000000000000000     
   1220.0000000000000        0.0000000000000000        0.0000000000000000     
   1180.0000000000000        0.0000000000000000        0.0000000000000000     
   1140.0000000000000        0.0000000000000000        0.0000000000000000     
   1100.0000000000000        0.0000000000000000        0.0000000000000000     
   1060.0000000000000        0.0000000000000000        0.0000000000000000     
   1020.0000000000000        0.0000000000000000        0.0000000000000000     
   980.00000000000000        0.0000000000000000        0.0000000000000000     
   940.00000000000000        0.0000000000000000        0.0000000000000000     
   900.00000000000000        0.0000000000000000        0.0000000000000000     
   860.00000000000000        0.0000000000000000        0.0000000000000000     
   820.00000000000000        0.0000000000000000        0.0000000000000000     
   780.00000000000000        0.0000000000000000        0.0000000000000000     
   740.00000000000000        0.0000000000000000        0.0000000000000000     
   700.00000000000000        0.0000000000000000        0.0000000000000000     
   660.00000000000000        0.0000000000000000        0.0000000000000000     
   620.00000000000000        0.0000000000000000        0.0000000000000000     
   580.00000000000000        0.0000000000000000        0.0000000000000000     
   540.00000000000000        0.0000000000000000        0.0000000000000000     
   500.00000000000000        0.0000000000000000        0.0000000000000000     
   460.00000000000000        0.0000000000000000        0.0000000000000000     
   420.00000000000000        0.0000000000000000        0.0000000000000000     
   380.00000000000000        0.0000000000000000        0.0000000000000000     
   340.00000000000000        0.0000000000000000        0.0000000000000000     
   300.00000000000000        0.0000000000000000        0.0000000000000000     
   260.00000000000000        0.0000000000000000        0.0000000000000000     
   220.00000000000000        0.0000000000000000        0.0000000000000000     
   180.00000000000000        0.0000000000000000        0.0000000000000000     
   140.00000000000000        0.0000000000000000        0.0000000000000000     
   100.00000000000000        0.0000000000000000        0.0000000000000000     
   60.000000000000000        0.0000000000000000        0.0000000000000000     
   20.000000000000000        0.0000000000000000        0.0000000000000000     
  height   rhobf       rhobh
    0.0  0.71939835261271401E+00  0.72089736319830500E+00
 5020.0  0.72239637378389610E+00  0.72389538436948708E+00
 4980.0  0.72539439495507818E+00  0.72689816090243542E+00
 4940.0  0.72840192684979266E+00  0.72991045860389803E+00
 4900.0  0.73141899035800340E+00  0.73293229837660245E+00